/*---------------------------------------------------------------------------*\
  =========                 |
  \\      /  F ield         | OpenFOAM: The Open Source CFD Toolbox
   \\    /   O peration     | Website:  https://openfoam.org
    \\  /    A nd           | Version:  6
     \\/     M anipulation  |
\*---------------------------------------------------------------------------*/
Build  : 6-f934eabb0d52
Exec   : buoyantPimpleFoam -case /home/mamitsu/OpenFOAM/mamitsu-6/run/aircond5_play3/Case/case0
Date   : May 19 2019
Time   : 22:29:14
Host   : "mamitsu-desktop"
PID    : 32237
I/O    : uncollated
Case   : /home/mamitsu/OpenFOAM/mamitsu-6/run/aircond5_play3/Case/case0
nProcs : 1
sigFpe : Enabling floating point exception trapping (FOAM_SIGFPE).
fileModificationChecking : Monitoring run-time modified files using timeStampMaster (fileModificationSkew 10)
allowSystemOperations : Allowing user-supplied system call operations

// * * * * * * * * * * * * * * * * * * * * * * * * * * * * * * * * * * * * * //
Create time

Create mesh for time = 1800


PIMPLE: No convergence criteria found


PIMPLE: Operating solver in PISO mode

Reading thermophysical properties

Selecting thermodynamics package
{
    type            heRhoThermo;
    mixture         pureMixture;
    transport       const;
    thermo          hConst;
    equationOfState perfectGas;
    specie          specie;
    energy          sensibleEnthalpy;
}

Reading field U

Reading/calculating face flux field phi

Creating turbulence model

Selecting turbulence model type RAS
Selecting RAS turbulence model kEpsilon
RAS
{
    RASModel        kEpsilon;
    turbulence      on;
    printCoeffs     on;
    Cmu             0.09;
    C1              1.44;
    C2              1.92;
    C3              0;
    sigmak          1;
    sigmaEps        1.3;
}


Reading g

Reading hRef
Calculating field g.h

Reading field p_rgh

Creating field dpdt

Creating field kinetic energy K

No MRF models present

Radiation model not active: radiationProperties not found
Selecting radiationModel none
No finite volume options present
Courant Number mean: 0.0063585 max: 0.0329689

Starting time loop

Courant Number mean: 0.0063585 max: 0.0329689
Time = 1800.01

diagonal:  Solving for rho, Initial residual = 0, Final residual = 0, No Iterations 0
DILUPBiCGStab:  Solving for Ux, Initial residual = 0.00174851, Final residual = 3.82919e-08, No Iterations 1
DILUPBiCGStab:  Solving for Uy, Initial residual = 0.0988926, Final residual = 3.45315e-11, No Iterations 1
DILUPBiCGStab:  Solving for h, Initial residual = 5.60426e-06, Final residual = 1.0707e-10, No Iterations 1
DICPCG:  Solving for p_rgh, Initial residual = 0.955527, Final residual = 0.00812165, No Iterations 3
diagonal:  Solving for rho, Initial residual = 0, Final residual = 0, No Iterations 0
time step continuity errors : sum local = 9.5791e-06, global = -1.71178e-07, cumulative = -1.71178e-07
DICPCG:  Solving for p_rgh, Initial residual = 0.0930792, Final residual = 4.15482e-09, No Iterations 39
diagonal:  Solving for rho, Initial residual = 0, Final residual = 0, No Iterations 0
time step continuity errors : sum local = 3.08888e-10, global = 6.17849e-12, cumulative = -1.71172e-07
DILUPBiCGStab:  Solving for epsilon, Initial residual = 1.01453e-06, Final residual = 1.55483e-11, No Iterations 1
DILUPBiCGStab:  Solving for k, Initial residual = 1.22201e-06, Final residual = 2.63466e-11, No Iterations 1
ExecutionTime = 0.01 s  ClockTime = 0 s

Courant Number mean: 0.0063585 max: 0.0329723
Time = 1800.02

diagonal:  Solving for rho, Initial residual = 0, Final residual = 0, No Iterations 0
DILUPBiCGStab:  Solving for Ux, Initial residual = 9.81543e-05, Final residual = 7.8941e-10, No Iterations 1
DILUPBiCGStab:  Solving for Uy, Initial residual = 0.000370156, Final residual = 4.46863e-09, No Iterations 1
DILUPBiCGStab:  Solving for h, Initial residual = 4.66851e-05, Final residual = 5.08263e-10, No Iterations 1
DICPCG:  Solving for p_rgh, Initial residual = 0.0430903, Final residual = 0.000352807, No Iterations 18
diagonal:  Solving for rho, Initial residual = 0, Final residual = 0, No Iterations 0
time step continuity errors : sum local = 3.70113e-08, global = -7.10596e-09, cumulative = -1.78278e-07
DICPCG:  Solving for p_rgh, Initial residual = 0.000394967, Final residual = 4.87401e-09, No Iterations 32
diagonal:  Solving for rho, Initial residual = 0, Final residual = 0, No Iterations 0
time step continuity errors : sum local = 1.0359e-11, global = -6.65404e-13, cumulative = -1.78278e-07
DILUPBiCGStab:  Solving for epsilon, Initial residual = 8.91915e-07, Final residual = 8.91915e-07, No Iterations 0
DILUPBiCGStab:  Solving for k, Initial residual = 8.61188e-07, Final residual = 8.61188e-07, No Iterations 0
ExecutionTime = 0.01 s  ClockTime = 0 s

Courant Number mean: 0.00635863 max: 0.0329723
Time = 1800.03

diagonal:  Solving for rho, Initial residual = 0, Final residual = 0, No Iterations 0
DILUPBiCGStab:  Solving for Ux, Initial residual = 0.00011522, Final residual = 1.2416e-09, No Iterations 1
DILUPBiCGStab:  Solving for Uy, Initial residual = 0.000346631, Final residual = 4.08833e-09, No Iterations 1
DILUPBiCGStab:  Solving for h, Initial residual = 1.68826e-05, Final residual = 2.39506e-10, No Iterations 1
DICPCG:  Solving for p_rgh, Initial residual = 0.0212335, Final residual = 0.000180773, No Iterations 17
diagonal:  Solving for rho, Initial residual = 0, Final residual = 0, No Iterations 0
time step continuity errors : sum local = 1.88355e-08, global = 6.32536e-11, cumulative = -1.78215e-07
DICPCG:  Solving for p_rgh, Initial residual = 0.000200105, Final residual = 5.91269e-09, No Iterations 31
diagonal:  Solving for rho, Initial residual = 0, Final residual = 0, No Iterations 0
time step continuity errors : sum local = 9.35507e-12, global = -8.91937e-12, cumulative = -1.78224e-07
DILUPBiCGStab:  Solving for epsilon, Initial residual = 8.79168e-07, Final residual = 8.79168e-07, No Iterations 0
DILUPBiCGStab:  Solving for k, Initial residual = 8.58826e-07, Final residual = 8.58826e-07, No Iterations 0
ExecutionTime = 0.02 s  ClockTime = 0 s

Courant Number mean: 0.00635861 max: 0.0329716
Time = 1800.04

diagonal:  Solving for rho, Initial residual = 0, Final residual = 0, No Iterations 0
DILUPBiCGStab:  Solving for Ux, Initial residual = 4.6711e-05, Final residual = 5.26626e-10, No Iterations 1
DILUPBiCGStab:  Solving for Uy, Initial residual = 3.95885e-05, Final residual = 3.32099e-10, No Iterations 1
DILUPBiCGStab:  Solving for h, Initial residual = 1.01931e-05, Final residual = 1.31944e-10, No Iterations 1
DICPCG:  Solving for p_rgh, Initial residual = 0.00148433, Final residual = 1.16637e-05, No Iterations 23
diagonal:  Solving for rho, Initial residual = 0, Final residual = 0, No Iterations 0
time step continuity errors : sum local = 1.20907e-09, global = -7.97084e-12, cumulative = -1.78232e-07
DICPCG:  Solving for p_rgh, Initial residual = 1.70843e-05, Final residual = 6.95331e-09, No Iterations 28
diagonal:  Solving for rho, Initial residual = 0, Final residual = 0, No Iterations 0
time step continuity errors : sum local = 6.97004e-12, global = -6.77735e-12, cumulative = -1.78239e-07
DILUPBiCGStab:  Solving for epsilon, Initial residual = 8.731e-07, Final residual = 8.731e-07, No Iterations 0
DILUPBiCGStab:  Solving for k, Initial residual = 8.47328e-07, Final residual = 8.47328e-07, No Iterations 0
ExecutionTime = 0.02 s  ClockTime = 0 s

Courant Number mean: 0.00635855 max: 0.0329716
Time = 1800.05

diagonal:  Solving for rho, Initial residual = 0, Final residual = 0, No Iterations 0
DILUPBiCGStab:  Solving for Ux, Initial residual = 1.61597e-05, Final residual = 1.04154e-10, No Iterations 1
DILUPBiCGStab:  Solving for Uy, Initial residual = 3.46001e-05, Final residual = 3.07032e-10, No Iterations 1
DILUPBiCGStab:  Solving for h, Initial residual = 8.84527e-06, Final residual = 1.11854e-10, No Iterations 1
DICPCG:  Solving for p_rgh, Initial residual = 0.0005939, Final residual = 5.29374e-06, No Iterations 23
diagonal:  Solving for rho, Initial residual = 0, Final residual = 0, No Iterations 0
time step continuity errors : sum local = 5.48536e-10, global = 5.57579e-12, cumulative = -1.78233e-07
DICPCG:  Solving for p_rgh, Initial residual = 7.60327e-06, Final residual = 6.593e-09, No Iterations 27
diagonal:  Solving for rho, Initial residual = 0, Final residual = 0, No Iterations 0
time step continuity errors : sum local = 4.88678e-12, global = -4.8345e-12, cumulative = -1.78238e-07
DILUPBiCGStab:  Solving for epsilon, Initial residual = 8.6772e-07, Final residual = 8.6772e-07, No Iterations 0
DILUPBiCGStab:  Solving for k, Initial residual = 8.39374e-07, Final residual = 8.39374e-07, No Iterations 0
ExecutionTime = 0.02 s  ClockTime = 0 s

Courant Number mean: 0.00635854 max: 0.0329714
Time = 1800.06

diagonal:  Solving for rho, Initial residual = 0, Final residual = 0, No Iterations 0
DILUPBiCGStab:  Solving for Ux, Initial residual = 2.02517e-05, Final residual = 2.51425e-10, No Iterations 1
DILUPBiCGStab:  Solving for Uy, Initial residual = 1.04238e-05, Final residual = 1.0812e-10, No Iterations 1
DILUPBiCGStab:  Solving for h, Initial residual = 7.75087e-06, Final residual = 1.0414e-10, No Iterations 1
DICPCG:  Solving for p_rgh, Initial residual = 0.000328084, Final residual = 2.93224e-06, No Iterations 22
diagonal:  Solving for rho, Initial residual = 0, Final residual = 0, No Iterations 0
time step continuity errors : sum local = 3.03861e-10, global = 2.68244e-12, cumulative = -1.78235e-07
DICPCG:  Solving for p_rgh, Initial residual = 4.83289e-06, Final residual = 8.865e-09, No Iterations 21
diagonal:  Solving for rho, Initial residual = 0, Final residual = 0, No Iterations 0
time step continuity errors : sum local = 3.88547e-12, global = -3.7176e-12, cumulative = -1.78239e-07
DILUPBiCGStab:  Solving for epsilon, Initial residual = 8.56452e-07, Final residual = 8.56452e-07, No Iterations 0
DILUPBiCGStab:  Solving for k, Initial residual = 8.27415e-07, Final residual = 8.27415e-07, No Iterations 0
ExecutionTime = 0.03 s  ClockTime = 0 s

Courant Number mean: 0.00635854 max: 0.0329707
Time = 1800.07

diagonal:  Solving for rho, Initial residual = 0, Final residual = 0, No Iterations 0
DILUPBiCGStab:  Solving for Ux, Initial residual = 2.72024e-05, Final residual = 2.99705e-10, No Iterations 1
DILUPBiCGStab:  Solving for Uy, Initial residual = 1.57409e-05, Final residual = 2.04907e-10, No Iterations 1
DILUPBiCGStab:  Solving for h, Initial residual = 6.05319e-06, Final residual = 9.85904e-11, No Iterations 1
DICPCG:  Solving for p_rgh, Initial residual = 0.00023254, Final residual = 1.82918e-06, No Iterations 20
diagonal:  Solving for rho, Initial residual = 0, Final residual = 0, No Iterations 0
time step continuity errors : sum local = 1.89525e-10, global = 2.62055e-12, cumulative = -1.78237e-07
DICPCG:  Solving for p_rgh, Initial residual = 2.95871e-06, Final residual = 6.29157e-09, No Iterations 25
diagonal:  Solving for rho, Initial residual = 0, Final residual = 0, No Iterations 0
time step continuity errors : sum local = 2.18852e-12, global = -2.0566e-12, cumulative = -1.78239e-07
DILUPBiCGStab:  Solving for epsilon, Initial residual = 8.44155e-07, Final residual = 8.44155e-07, No Iterations 0
DILUPBiCGStab:  Solving for k, Initial residual = 8.13316e-07, Final residual = 8.13316e-07, No Iterations 0
ExecutionTime = 0.03 s  ClockTime = 0 s

Courant Number mean: 0.00635852 max: 0.0329698
Time = 1800.08

diagonal:  Solving for rho, Initial residual = 0, Final residual = 0, No Iterations 0
DILUPBiCGStab:  Solving for Ux, Initial residual = 2.29485e-05, Final residual = 2.74446e-10, No Iterations 1
DILUPBiCGStab:  Solving for Uy, Initial residual = 1.61441e-05, Final residual = 2.51111e-10, No Iterations 1
DILUPBiCGStab:  Solving for h, Initial residual = 4.91493e-06, Final residual = 9.12841e-11, No Iterations 1
DICPCG:  Solving for p_rgh, Initial residual = 0.000136556, Final residual = 1.31196e-06, No Iterations 16
diagonal:  Solving for rho, Initial residual = 0, Final residual = 0, No Iterations 0
time step continuity errors : sum local = 1.36163e-10, global = 5.00556e-11, cumulative = -1.78189e-07
DICPCG:  Solving for p_rgh, Initial residual = 1.64755e-06, Final residual = 8.80111e-09, No Iterations 23
diagonal:  Solving for rho, Initial residual = 0, Final residual = 0, No Iterations 0
time step continuity errors : sum local = 1.10635e-12, global = -4.74885e-14, cumulative = -1.78189e-07
DILUPBiCGStab:  Solving for epsilon, Initial residual = 8.37008e-07, Final residual = 8.37008e-07, No Iterations 0
DILUPBiCGStab:  Solving for k, Initial residual = 8.1202e-07, Final residual = 8.1202e-07, No Iterations 0
ExecutionTime = 0.03 s  ClockTime = 0 s

Courant Number mean: 0.00635849 max: 0.0329687
Time = 1800.09

diagonal:  Solving for rho, Initial residual = 0, Final residual = 0, No Iterations 0
DILUPBiCGStab:  Solving for Ux, Initial residual = 1.73369e-05, Final residual = 2.26821e-10, No Iterations 1
DILUPBiCGStab:  Solving for Uy, Initial residual = 1.56205e-05, Final residual = 2.64389e-10, No Iterations 1
DILUPBiCGStab:  Solving for h, Initial residual = 4.69325e-06, Final residual = 9.09465e-11, No Iterations 1
DICPCG:  Solving for p_rgh, Initial residual = 0.000166469, Final residual = 1.56544e-06, No Iterations 18
diagonal:  Solving for rho, Initial residual = 0, Final residual = 0, No Iterations 0
time step continuity errors : sum local = 1.62286e-10, global = 3.29817e-13, cumulative = -1.78188e-07
DICPCG:  Solving for p_rgh, Initial residual = 2.22987e-06, Final residual = 6.39715e-09, No Iterations 23
diagonal:  Solving for rho, Initial residual = 0, Final residual = 0, No Iterations 0
time step continuity errors : sum local = 1.90941e-12, global = 1.76153e-12, cumulative = -1.78187e-07
DILUPBiCGStab:  Solving for epsilon, Initial residual = 8.41004e-07, Final residual = 8.41004e-07, No Iterations 0
DILUPBiCGStab:  Solving for k, Initial residual = 8.32007e-07, Final residual = 8.32007e-07, No Iterations 0
ExecutionTime = 0.04 s  ClockTime = 0 s

Courant Number mean: 0.00635846 max: 0.0329679
Time = 1800.1

diagonal:  Solving for rho, Initial residual = 0, Final residual = 0, No Iterations 0
DILUPBiCGStab:  Solving for Ux, Initial residual = 1.35951e-05, Final residual = 1.78843e-10, No Iterations 1
DILUPBiCGStab:  Solving for Uy, Initial residual = 1.30541e-05, Final residual = 2.19854e-10, No Iterations 1
DILUPBiCGStab:  Solving for h, Initial residual = 5.17547e-06, Final residual = 9.47646e-11, No Iterations 1
DICPCG:  Solving for p_rgh, Initial residual = 0.000249428, Final residual = 1.17175e-06, No Iterations 18
diagonal:  Solving for rho, Initial residual = 0, Final residual = 0, No Iterations 0
time step continuity errors : sum local = 1.21517e-10, global = 9.09785e-13, cumulative = -1.78186e-07
DICPCG:  Solving for p_rgh, Initial residual = 2.56378e-06, Final residual = 9.2563e-09, No Iterations 24
diagonal:  Solving for rho, Initial residual = 0, Final residual = 0, No Iterations 0
time step continuity errors : sum local = 3.18007e-12, global = 3.01027e-12, cumulative = -1.78183e-07
DILUPBiCGStab:  Solving for epsilon, Initial residual = 8.59394e-07, Final residual = 8.59394e-07, No Iterations 0
DILUPBiCGStab:  Solving for k, Initial residual = 8.52915e-07, Final residual = 8.52915e-07, No Iterations 0
ExecutionTime = 0.04 s  ClockTime = 0 s

Courant Number mean: 0.00635845 max: 0.0329674
Time = 1800.11

diagonal:  Solving for rho, Initial residual = 0, Final residual = 0, No Iterations 0
DILUPBiCGStab:  Solving for Ux, Initial residual = 9.95927e-06, Final residual = 1.23476e-10, No Iterations 1
DILUPBiCGStab:  Solving for Uy, Initial residual = 8.60181e-06, Final residual = 1.37495e-10, No Iterations 1
DILUPBiCGStab:  Solving for h, Initial residual = 5.77128e-06, Final residual = 9.6278e-11, No Iterations 1
DICPCG:  Solving for p_rgh, Initial residual = 0.000302373, Final residual = 2.42195e-06, No Iterations 20
diagonal:  Solving for rho, Initial residual = 0, Final residual = 0, No Iterations 0
time step continuity errors : sum local = 2.50875e-10, global = 1.4415e-12, cumulative = -1.78181e-07
DICPCG:  Solving for p_rgh, Initial residual = 3.67385e-06, Final residual = 5.49716e-09, No Iterations 25
diagonal:  Solving for rho, Initial residual = 0, Final residual = 0, No Iterations 0
time step continuity errors : sum local = 3.66829e-12, global = 3.61026e-12, cumulative = -1.78178e-07
DILUPBiCGStab:  Solving for epsilon, Initial residual = 8.67575e-07, Final residual = 8.67575e-07, No Iterations 0
DILUPBiCGStab:  Solving for k, Initial residual = 8.60558e-07, Final residual = 8.60558e-07, No Iterations 0
ExecutionTime = 0.05 s  ClockTime = 0 s

Courant Number mean: 0.00635845 max: 0.0329672
Time = 1800.12

diagonal:  Solving for rho, Initial residual = 0, Final residual = 0, No Iterations 0
DILUPBiCGStab:  Solving for Ux, Initial residual = 4.65202e-06, Final residual = 5.23961e-11, No Iterations 1
DILUPBiCGStab:  Solving for Uy, Initial residual = 3.47397e-06, Final residual = 4.79927e-11, No Iterations 1
DILUPBiCGStab:  Solving for h, Initial residual = 6.16155e-06, Final residual = 9.50454e-11, No Iterations 1
DICPCG:  Solving for p_rgh, Initial residual = 0.000306874, Final residual = 2.93535e-06, No Iterations 20
diagonal:  Solving for rho, Initial residual = 0, Final residual = 0, No Iterations 0
time step continuity errors : sum local = 3.04162e-10, global = 3.20435e-12, cumulative = -1.78174e-07
DICPCG:  Solving for p_rgh, Initial residual = 3.96547e-06, Final residual = 8.63076e-09, No Iterations 24
diagonal:  Solving for rho, Initial residual = 0, Final residual = 0, No Iterations 0
time step continuity errors : sum local = 3.71258e-12, global = 3.57159e-12, cumulative = -1.78171e-07
DILUPBiCGStab:  Solving for epsilon, Initial residual = 8.61496e-07, Final residual = 8.61496e-07, No Iterations 0
DILUPBiCGStab:  Solving for k, Initial residual = 8.54622e-07, Final residual = 8.54622e-07, No Iterations 0
ExecutionTime = 0.05 s  ClockTime = 0 s

Courant Number mean: 0.00635846 max: 0.0329674
Time = 1800.13

diagonal:  Solving for rho, Initial residual = 0, Final residual = 0, No Iterations 0
DILUPBiCGStab:  Solving for Ux, Initial residual = 1.94111e-06, Final residual = 2.81685e-11, No Iterations 1
DILUPBiCGStab:  Solving for Uy, Initial residual = 2.25697e-06, Final residual = 3.99631e-11, No Iterations 1
DILUPBiCGStab:  Solving for h, Initial residual = 6.11347e-06, Final residual = 9.27856e-11, No Iterations 1
DICPCG:  Solving for p_rgh, Initial residual = 0.000264696, Final residual = 1.59258e-06, No Iterations 21
diagonal:  Solving for rho, Initial residual = 0, Final residual = 0, No Iterations 0
time step continuity errors : sum local = 1.65062e-10, global = -8.82771e-13, cumulative = -1.78172e-07
DICPCG:  Solving for p_rgh, Initial residual = 2.46941e-06, Final residual = 7.74532e-09, No Iterations 23
diagonal:  Solving for rho, Initial residual = 0, Final residual = 0, No Iterations 0
time step continuity errors : sum local = 3.13133e-12, global = 3.00204e-12, cumulative = -1.78169e-07
DILUPBiCGStab:  Solving for epsilon, Initial residual = 8.47893e-07, Final residual = 8.47893e-07, No Iterations 0
DILUPBiCGStab:  Solving for k, Initial residual = 8.38712e-07, Final residual = 8.38712e-07, No Iterations 0
ExecutionTime = 0.05 s  ClockTime = 0 s

Courant Number mean: 0.00635847 max: 0.0329678
Time = 1800.14

diagonal:  Solving for rho, Initial residual = 0, Final residual = 0, No Iterations 0
DILUPBiCGStab:  Solving for Ux, Initial residual = 7.75852e-06, Final residual = 9.81954e-11, No Iterations 1
DILUPBiCGStab:  Solving for Uy, Initial residual = 5.61887e-06, Final residual = 9.41855e-11, No Iterations 1
DILUPBiCGStab:  Solving for h, Initial residual = 5.63894e-06, Final residual = 8.96674e-11, No Iterations 1
DICPCG:  Solving for p_rgh, Initial residual = 0.000189144, Final residual = 1.32059e-06, No Iterations 21
diagonal:  Solving for rho, Initial residual = 0, Final residual = 0, No Iterations 0
time step continuity errors : sum local = 1.36899e-10, global = -3.903e-13, cumulative = -1.78169e-07
DICPCG:  Solving for p_rgh, Initial residual = 1.86826e-06, Final residual = 9.09215e-09, No Iterations 23
diagonal:  Solving for rho, Initial residual = 0, Final residual = 0, No Iterations 0
time step continuity errors : sum local = 2.31189e-12, global = 2.05836e-12, cumulative = -1.78167e-07
DILUPBiCGStab:  Solving for epsilon, Initial residual = 8.38286e-07, Final residual = 8.38286e-07, No Iterations 0
DILUPBiCGStab:  Solving for k, Initial residual = 8.21812e-07, Final residual = 8.21812e-07, No Iterations 0
ExecutionTime = 0.06 s  ClockTime = 0 s

Courant Number mean: 0.00635848 max: 0.0329683
Time = 1800.15

diagonal:  Solving for rho, Initial residual = 0, Final residual = 0, No Iterations 0
DILUPBiCGStab:  Solving for Ux, Initial residual = 1.14334e-05, Final residual = 1.42258e-10, No Iterations 1
DILUPBiCGStab:  Solving for Uy, Initial residual = 8.21238e-06, Final residual = 1.35e-10, No Iterations 1
DILUPBiCGStab:  Solving for h, Initial residual = 4.94615e-06, Final residual = 8.55952e-11, No Iterations 1
DICPCG:  Solving for p_rgh, Initial residual = 9.50804e-05, Final residual = 8.91714e-07, No Iterations 21
diagonal:  Solving for rho, Initial residual = 0, Final residual = 0, No Iterations 0
time step continuity errors : sum local = 9.24233e-11, global = -8.90942e-13, cumulative = -1.78168e-07
DICPCG:  Solving for p_rgh, Initial residual = 1.08442e-06, Final residual = 9.38558e-09, No Iterations 22
diagonal:  Solving for rho, Initial residual = 0, Final residual = 0, No Iterations 0
time step continuity errors : sum local = 1.34591e-12, global = 9.13259e-13, cumulative = -1.78167e-07
DILUPBiCGStab:  Solving for epsilon, Initial residual = 8.42319e-07, Final residual = 8.42319e-07, No Iterations 0
DILUPBiCGStab:  Solving for k, Initial residual = 8.14342e-07, Final residual = 8.14342e-07, No Iterations 0
ExecutionTime = 0.06 s  ClockTime = 0 s

Courant Number mean: 0.0063585 max: 0.0329689
Time = 1800.16

diagonal:  Solving for rho, Initial residual = 0, Final residual = 0, No Iterations 0
DILUPBiCGStab:  Solving for Ux, Initial residual = 1.25602e-05, Final residual = 1.55845e-10, No Iterations 1
DILUPBiCGStab:  Solving for Uy, Initial residual = 9.32301e-06, Final residual = 1.52493e-10, No Iterations 1
DILUPBiCGStab:  Solving for h, Initial residual = 4.31718e-06, Final residual = 8.10258e-11, No Iterations 1
DICPCG:  Solving for p_rgh, Initial residual = 4.24248e-05, Final residual = 2.98373e-07, No Iterations 22
diagonal:  Solving for rho, Initial residual = 0, Final residual = 0, No Iterations 0
time step continuity errors : sum local = 3.0866e-11, global = -2.93414e-13, cumulative = -1.78167e-07
DICPCG:  Solving for p_rgh, Initial residual = 4.01011e-07, Final residual = 9.87306e-09, No Iterations 20
diagonal:  Solving for rho, Initial residual = 0, Final residual = 0, No Iterations 0
time step continuity errors : sum local = 1.12175e-12, global = -2.26679e-13, cumulative = -1.78167e-07
DILUPBiCGStab:  Solving for epsilon, Initial residual = 8.46504e-07, Final residual = 8.46504e-07, No Iterations 0
DILUPBiCGStab:  Solving for k, Initial residual = 8.13523e-07, Final residual = 8.13523e-07, No Iterations 0
ExecutionTime = 0.06 s  ClockTime = 0 s

Courant Number mean: 0.00635851 max: 0.0329695
Time = 1800.17

diagonal:  Solving for rho, Initial residual = 0, Final residual = 0, No Iterations 0
DILUPBiCGStab:  Solving for Ux, Initial residual = 1.15084e-05, Final residual = 1.42783e-10, No Iterations 1
DILUPBiCGStab:  Solving for Uy, Initial residual = 8.88551e-06, Final residual = 1.45022e-10, No Iterations 1
DILUPBiCGStab:  Solving for h, Initial residual = 4.00009e-06, Final residual = 7.70863e-11, No Iterations 1
DICPCG:  Solving for p_rgh, Initial residual = 0.000105711, Final residual = 1.01013e-06, No Iterations 19
diagonal:  Solving for rho, Initial residual = 0, Final residual = 0, No Iterations 0
time step continuity errors : sum local = 1.04514e-10, global = -6.20889e-13, cumulative = -1.78168e-07
DICPCG:  Solving for p_rgh, Initial residual = 1.43253e-06, Final residual = 7.31552e-09, No Iterations 22
diagonal:  Solving for rho, Initial residual = 0, Final residual = 0, No Iterations 0
time step continuity errors : sum local = 1.52349e-12, global = -1.18899e-12, cumulative = -1.78169e-07
DILUPBiCGStab:  Solving for epsilon, Initial residual = 8.50081e-07, Final residual = 8.50081e-07, No Iterations 0
DILUPBiCGStab:  Solving for k, Initial residual = 8.17851e-07, Final residual = 8.17851e-07, No Iterations 0
ExecutionTime = 0.06 s  ClockTime = 0 s

Courant Number mean: 0.00635852 max: 0.0329699
Time = 1800.18

diagonal:  Solving for rho, Initial residual = 0, Final residual = 0, No Iterations 0
DILUPBiCGStab:  Solving for Ux, Initial residual = 8.89614e-06, Final residual = 1.1017e-10, No Iterations 1
DILUPBiCGStab:  Solving for Uy, Initial residual = 7.13854e-06, Final residual = 1.15812e-10, No Iterations 1
DILUPBiCGStab:  Solving for h, Initial residual = 4.0398e-06, Final residual = 7.45967e-11, No Iterations 1
DICPCG:  Solving for p_rgh, Initial residual = 0.000150994, Final residual = 1.04362e-06, No Iterations 20
diagonal:  Solving for rho, Initial residual = 0, Final residual = 0, No Iterations 0
time step continuity errors : sum local = 1.0802e-10, global = -1.00481e-12, cumulative = -1.7817e-07
DICPCG:  Solving for p_rgh, Initial residual = 1.7247e-06, Final residual = 9.00397e-09, No Iterations 23
diagonal:  Solving for rho, Initial residual = 0, Final residual = 0, No Iterations 0
time step continuity errors : sum local = 2.10345e-12, global = -1.86312e-12, cumulative = -1.78172e-07
DILUPBiCGStab:  Solving for epsilon, Initial residual = 8.53153e-07, Final residual = 8.53153e-07, No Iterations 0
DILUPBiCGStab:  Solving for k, Initial residual = 8.21126e-07, Final residual = 8.21126e-07, No Iterations 0
ExecutionTime = 0.07 s  ClockTime = 0 s

Courant Number mean: 0.00635853 max: 0.0329701
Time = 1800.19

diagonal:  Solving for rho, Initial residual = 0, Final residual = 0, No Iterations 0
DILUPBiCGStab:  Solving for Ux, Initial residual = 5.33864e-06, Final residual = 6.56321e-11, No Iterations 1
DILUPBiCGStab:  Solving for Uy, Initial residual = 4.5183e-06, Final residual = 7.19565e-11, No Iterations 1
DILUPBiCGStab:  Solving for h, Initial residual = 4.18453e-06, Final residual = 7.35794e-11, No Iterations 1
DICPCG:  Solving for p_rgh, Initial residual = 0.000179592, Final residual = 1.41811e-06, No Iterations 20
diagonal:  Solving for rho, Initial residual = 0, Final residual = 0, No Iterations 0
time step continuity errors : sum local = 1.46787e-10, global = -2.08798e-12, cumulative = -1.78174e-07
DICPCG:  Solving for p_rgh, Initial residual = 2.10907e-06, Final residual = 7.27357e-09, No Iterations 24
diagonal:  Solving for rho, Initial residual = 0, Final residual = 0, No Iterations 0
time step continuity errors : sum local = 2.31347e-12, global = -2.14997e-12, cumulative = -1.78176e-07
DILUPBiCGStab:  Solving for epsilon, Initial residual = 8.53925e-07, Final residual = 8.53925e-07, No Iterations 0
DILUPBiCGStab:  Solving for k, Initial residual = 8.22353e-07, Final residual = 8.22353e-07, No Iterations 0
ExecutionTime = 0.07 s  ClockTime = 0 s

Courant Number mean: 0.00635853 max: 0.0329702
Time = 1800.2

diagonal:  Solving for rho, Initial residual = 0, Final residual = 0, No Iterations 0
DILUPBiCGStab:  Solving for Ux, Initial residual = 1.43713e-06, Final residual = 1.7208e-11, No Iterations 1
DILUPBiCGStab:  Solving for Uy, Initial residual = 1.56345e-06, Final residual = 2.19622e-11, No Iterations 1
DILUPBiCGStab:  Solving for h, Initial residual = 4.24497e-06, Final residual = 7.29283e-11, No Iterations 1
DICPCG:  Solving for p_rgh, Initial residual = 0.000178473, Final residual = 1.67584e-06, No Iterations 18
diagonal:  Solving for rho, Initial residual = 0, Final residual = 0, No Iterations 0
time step continuity errors : sum local = 1.73702e-10, global = -7.66127e-12, cumulative = -1.78184e-07
DICPCG:  Solving for p_rgh, Initial residual = 2.28203e-06, Final residual = 7.54122e-09, No Iterations 25
diagonal:  Solving for rho, Initial residual = 0, Final residual = 0, No Iterations 0
time step continuity errors : sum local = 2.21239e-12, global = -2.07152e-12, cumulative = -1.78186e-07
DILUPBiCGStab:  Solving for epsilon, Initial residual = 8.52603e-07, Final residual = 8.52603e-07, No Iterations 0
DILUPBiCGStab:  Solving for k, Initial residual = 8.2084e-07, Final residual = 8.2084e-07, No Iterations 0
ExecutionTime = 0.07 s  ClockTime = 0 s

Courant Number mean: 0.00635852 max: 0.0329701
Time = 1800.21

diagonal:  Solving for rho, Initial residual = 0, Final residual = 0, No Iterations 0
DILUPBiCGStab:  Solving for Ux, Initial residual = 2.24627e-06, Final residual = 2.88319e-11, No Iterations 1
DILUPBiCGStab:  Solving for Uy, Initial residual = 1.72209e-06, Final residual = 2.84601e-11, No Iterations 1
DILUPBiCGStab:  Solving for h, Initial residual = 4.15749e-06, Final residual = 7.14763e-11, No Iterations 1
DICPCG:  Solving for p_rgh, Initial residual = 0.000150002, Final residual = 1.15685e-06, No Iterations 16
diagonal:  Solving for rho, Initial residual = 0, Final residual = 0, No Iterations 0
time step continuity errors : sum local = 1.19955e-10, global = -3.26882e-12, cumulative = -1.78189e-07
DICPCG:  Solving for p_rgh, Initial residual = 1.70251e-06, Final residual = 7.10484e-09, No Iterations 24
diagonal:  Solving for rho, Initial residual = 0, Final residual = 0, No Iterations 0
time step continuity errors : sum local = 1.87066e-12, global = -1.68577e-12, cumulative = -1.78191e-07
DILUPBiCGStab:  Solving for epsilon, Initial residual = 8.49694e-07, Final residual = 8.49694e-07, No Iterations 0
DILUPBiCGStab:  Solving for k, Initial residual = 8.1807e-07, Final residual = 8.1807e-07, No Iterations 0
ExecutionTime = 0.07 s  ClockTime = 0 s

Courant Number mean: 0.00635852 max: 0.0329698
Time = 1800.22

diagonal:  Solving for rho, Initial residual = 0, Final residual = 0, No Iterations 0
DILUPBiCGStab:  Solving for Ux, Initial residual = 5.12832e-06, Final residual = 6.44522e-11, No Iterations 1
DILUPBiCGStab:  Solving for Uy, Initial residual = 3.72324e-06, Final residual = 6.14043e-11, No Iterations 1
DILUPBiCGStab:  Solving for h, Initial residual = 3.95713e-06, Final residual = 6.96019e-11, No Iterations 1
DICPCG:  Solving for p_rgh, Initial residual = 0.000102212, Final residual = 8.41175e-07, No Iterations 18
diagonal:  Solving for rho, Initial residual = 0, Final residual = 0, No Iterations 0
time step continuity errors : sum local = 8.72269e-11, global = 3.45035e-12, cumulative = -1.78188e-07
DICPCG:  Solving for p_rgh, Initial residual = 1.16014e-06, Final residual = 8.07142e-09, No Iterations 23
diagonal:  Solving for rho, Initial residual = 0, Final residual = 0, No Iterations 0
time step continuity errors : sum local = 1.39218e-12, global = -1.08183e-12, cumulative = -1.78189e-07
DILUPBiCGStab:  Solving for epsilon, Initial residual = 8.47023e-07, Final residual = 8.47023e-07, No Iterations 0
DILUPBiCGStab:  Solving for k, Initial residual = 8.1502e-07, Final residual = 8.1502e-07, No Iterations 0
ExecutionTime = 0.08 s  ClockTime = 0 s

Courant Number mean: 0.00635851 max: 0.0329695
Time = 1800.23

diagonal:  Solving for rho, Initial residual = 0, Final residual = 0, No Iterations 0
DILUPBiCGStab:  Solving for Ux, Initial residual = 6.86893e-06, Final residual = 8.56698e-11, No Iterations 1
DILUPBiCGStab:  Solving for Uy, Initial residual = 5.12676e-06, Final residual = 8.38601e-11, No Iterations 1
DILUPBiCGStab:  Solving for h, Initial residual = 3.73485e-06, Final residual = 6.81668e-11, No Iterations 1
DICPCG:  Solving for p_rgh, Initial residual = 4.56464e-05, Final residual = 2.77171e-07, No Iterations 22
diagonal:  Solving for rho, Initial residual = 0, Final residual = 0, No Iterations 0
time step continuity errors : sum local = 2.87531e-11, global = 2.44524e-13, cumulative = -1.78188e-07
DICPCG:  Solving for p_rgh, Initial residual = 3.79022e-07, Final residual = 6.52395e-09, No Iterations 18
diagonal:  Solving for rho, Initial residual = 0, Final residual = 0, No Iterations 0
time step continuity errors : sum local = 7.71563e-13, global = -3.89946e-13, cumulative = -1.78189e-07
DILUPBiCGStab:  Solving for epsilon, Initial residual = 8.44602e-07, Final residual = 8.44602e-07, No Iterations 0
DILUPBiCGStab:  Solving for k, Initial residual = 8.14273e-07, Final residual = 8.14273e-07, No Iterations 0
ExecutionTime = 0.08 s  ClockTime = 0 s

Courant Number mean: 0.0063585 max: 0.0329691
Time = 1800.24

diagonal:  Solving for rho, Initial residual = 0, Final residual = 0, No Iterations 0
DILUPBiCGStab:  Solving for Ux, Initial residual = 7.3292e-06, Final residual = 9.09832e-11, No Iterations 1
DILUPBiCGStab:  Solving for Uy, Initial residual = 5.58473e-06, Final residual = 9.08052e-11, No Iterations 1
DILUPBiCGStab:  Solving for h, Initial residual = 3.60444e-06, Final residual = 6.75465e-11, No Iterations 1
DICPCG:  Solving for p_rgh, Initial residual = 3.39577e-05, Final residual = 3.21861e-07, No Iterations 21
diagonal:  Solving for rho, Initial residual = 0, Final residual = 0, No Iterations 0
time step continuity errors : sum local = 3.36047e-11, global = -1.05984e-13, cumulative = -1.78189e-07
DICPCG:  Solving for p_rgh, Initial residual = 4.37891e-07, Final residual = 8.89975e-09, No Iterations 17
diagonal:  Solving for rho, Initial residual = 0, Final residual = 0, No Iterations 0
time step continuity errors : sum local = 1.03482e-12, global = 2.46927e-13, cumulative = -1.78189e-07
DILUPBiCGStab:  Solving for epsilon, Initial residual = 8.42504e-07, Final residual = 8.42504e-07, No Iterations 0
DILUPBiCGStab:  Solving for k, Initial residual = 8.15474e-07, Final residual = 8.15474e-07, No Iterations 0
ExecutionTime = 0.08 s  ClockTime = 0 s

Courant Number mean: 0.00635849 max: 0.0329688
Time = 1800.25

diagonal:  Solving for rho, Initial residual = 0, Final residual = 0, No Iterations 0
DILUPBiCGStab:  Solving for Ux, Initial residual = 6.60011e-06, Final residual = 8.16415e-11, No Iterations 1
DILUPBiCGStab:  Solving for Uy, Initial residual = 5.14267e-06, Final residual = 8.30624e-11, No Iterations 1
DILUPBiCGStab:  Solving for h, Initial residual = 3.62376e-06, Final residual = 6.72844e-11, No Iterations 1
DICPCG:  Solving for p_rgh, Initial residual = 6.90557e-05, Final residual = 4.68916e-07, No Iterations 20
diagonal:  Solving for rho, Initial residual = 0, Final residual = 0, No Iterations 0
time step continuity errors : sum local = 4.84483e-11, global = -1.54691e-13, cumulative = -1.78189e-07
DICPCG:  Solving for p_rgh, Initial residual = 7.67576e-07, Final residual = 8.01725e-09, No Iterations 18
diagonal:  Solving for rho, Initial residual = 0, Final residual = 0, No Iterations 0
time step continuity errors : sum local = 1.20151e-12, global = 7.29151e-13, cumulative = -1.78188e-07
DILUPBiCGStab:  Solving for epsilon, Initial residual = 8.41232e-07, Final residual = 8.41232e-07, No Iterations 0
DILUPBiCGStab:  Solving for k, Initial residual = 8.18237e-07, Final residual = 8.18237e-07, No Iterations 0
ExecutionTime = 0.08 s  ClockTime = 0 s

Courant Number mean: 0.00635848 max: 0.0329686
Time = 1800.26

diagonal:  Solving for rho, Initial residual = 0, Final residual = 0, No Iterations 0
DILUPBiCGStab:  Solving for Ux, Initial residual = 4.95015e-06, Final residual = 6.09809e-11, No Iterations 1
DILUPBiCGStab:  Solving for Uy, Initial residual = 3.98182e-06, Final residual = 6.3536e-11, No Iterations 1
DILUPBiCGStab:  Solving for h, Initial residual = 3.7353e-06, Final residual = 6.71788e-11, No Iterations 1
DICPCG:  Solving for p_rgh, Initial residual = 9.37496e-05, Final residual = 6.96391e-07, No Iterations 20
diagonal:  Solving for rho, Initial residual = 0, Final residual = 0, No Iterations 0
time step continuity errors : sum local = 7.2018e-11, global = 8.15796e-13, cumulative = -1.78187e-07
DICPCG:  Solving for p_rgh, Initial residual = 1.10243e-06, Final residual = 9.86631e-09, No Iterations 19
diagonal:  Solving for rho, Initial residual = 0, Final residual = 0, No Iterations 0
time step continuity errors : sum local = 1.56754e-12, global = 1.07822e-12, cumulative = -1.78186e-07
DILUPBiCGStab:  Solving for epsilon, Initial residual = 8.40644e-07, Final residual = 8.40644e-07, No Iterations 0
DILUPBiCGStab:  Solving for k, Initial residual = 8.19933e-07, Final residual = 8.19933e-07, No Iterations 0
ExecutionTime = 0.08 s  ClockTime = 0 s

Courant Number mean: 0.00635848 max: 0.0329685
Time = 1800.27

diagonal:  Solving for rho, Initial residual = 0, Final residual = 0, No Iterations 0
DILUPBiCGStab:  Solving for Ux, Initial residual = 2.75649e-06, Final residual = 3.3694e-11, No Iterations 1
DILUPBiCGStab:  Solving for Uy, Initial residual = 2.37271e-06, Final residual = 3.66076e-11, No Iterations 1
DILUPBiCGStab:  Solving for h, Initial residual = 3.83372e-06, Final residual = 6.68335e-11, No Iterations 1
DICPCG:  Solving for p_rgh, Initial residual = 0.000107468, Final residual = 9.01223e-07, No Iterations 20
diagonal:  Solving for rho, Initial residual = 0, Final residual = 0, No Iterations 0
time step continuity errors : sum local = 9.33103e-11, global = 1.07243e-12, cumulative = -1.78185e-07
DICPCG:  Solving for p_rgh, Initial residual = 1.31301e-06, Final residual = 7.19381e-09, No Iterations 23
diagonal:  Solving for rho, Initial residual = 0, Final residual = 0, No Iterations 0
time step continuity errors : sum local = 1.52202e-12, global = 1.27318e-12, cumulative = -1.78184e-07
DILUPBiCGStab:  Solving for epsilon, Initial residual = 8.40758e-07, Final residual = 8.40758e-07, No Iterations 0
DILUPBiCGStab:  Solving for k, Initial residual = 8.20459e-07, Final residual = 8.20459e-07, No Iterations 0
ExecutionTime = 0.08 s  ClockTime = 0 s

Courant Number mean: 0.00635848 max: 0.0329684
Time = 1800.28

diagonal:  Solving for rho, Initial residual = 0, Final residual = 0, No Iterations 0
DILUPBiCGStab:  Solving for Ux, Initial residual = 4.30517e-07, Final residual = 4.30517e-07, No Iterations 0
DILUPBiCGStab:  Solving for Uy, Initial residual = 6.58875e-07, Final residual = 6.58875e-07, No Iterations 0
DILUPBiCGStab:  Solving for h, Initial residual = 3.84196e-06, Final residual = 6.58406e-11, No Iterations 1
DICPCG:  Solving for p_rgh, Initial residual = 0.000103301, Final residual = 9.95419e-07, No Iterations 18
diagonal:  Solving for rho, Initial residual = 0, Final residual = 0, No Iterations 0
time step continuity errors : sum local = 1.03317e-10, global = 4.2636e-12, cumulative = -1.7818e-07
DICPCG:  Solving for p_rgh, Initial residual = 1.25891e-06, Final residual = 7.55002e-09, No Iterations 24
diagonal:  Solving for rho, Initial residual = 0, Final residual = 0, No Iterations 0
time step continuity errors : sum local = 1.43225e-12, global = 1.18341e-12, cumulative = -1.78178e-07
DILUPBiCGStab:  Solving for epsilon, Initial residual = 8.41477e-07, Final residual = 8.41477e-07, No Iterations 0
DILUPBiCGStab:  Solving for k, Initial residual = 8.19908e-07, Final residual = 8.19908e-07, No Iterations 0
ExecutionTime = 0.09 s  ClockTime = 0 s

Courant Number mean: 0.00635848 max: 0.0329685
Time = 1800.29

diagonal:  Solving for rho, Initial residual = 0, Final residual = 0, No Iterations 0
DILUPBiCGStab:  Solving for Ux, Initial residual = 1.71712e-06, Final residual = 2.19792e-11, No Iterations 1
DILUPBiCGStab:  Solving for Uy, Initial residual = 1.29483e-06, Final residual = 2.21629e-11, No Iterations 1
DILUPBiCGStab:  Solving for h, Initial residual = 3.75117e-06, Final residual = 6.42967e-11, No Iterations 1
DICPCG:  Solving for p_rgh, Initial residual = 8.37945e-05, Final residual = 5.64437e-07, No Iterations 16
diagonal:  Solving for rho, Initial residual = 0, Final residual = 0, No Iterations 0
time step continuity errors : sum local = 5.85891e-11, global = -1.30885e-13, cumulative = -1.78179e-07
DICPCG:  Solving for p_rgh, Initial residual = 8.73609e-07, Final residual = 6.91594e-09, No Iterations 21
diagonal:  Solving for rho, Initial residual = 0, Final residual = 0, No Iterations 0
time step continuity errors : sum local = 1.30782e-12, global = 9.29882e-13, cumulative = -1.78178e-07
DILUPBiCGStab:  Solving for epsilon, Initial residual = 8.42624e-07, Final residual = 8.42624e-07, No Iterations 0
DILUPBiCGStab:  Solving for k, Initial residual = 8.18527e-07, Final residual = 8.18527e-07, No Iterations 0
ExecutionTime = 0.09 s  ClockTime = 0 s

Courant Number mean: 0.00635849 max: 0.0329687
Time = 1800.3

diagonal:  Solving for rho, Initial residual = 0, Final residual = 0, No Iterations 0
DILUPBiCGStab:  Solving for Ux, Initial residual = 3.28874e-06, Final residual = 4.13982e-11, No Iterations 1
DILUPBiCGStab:  Solving for Uy, Initial residual = 2.42991e-06, Final residual = 4.07354e-11, No Iterations 1
DILUPBiCGStab:  Solving for h, Initial residual = 3.58831e-06, Final residual = 6.24044e-11, No Iterations 1
DICPCG:  Solving for p_rgh, Initial residual = 5.39326e-05, Final residual = 4.08723e-07, No Iterations 21
diagonal:  Solving for rho, Initial residual = 0, Final residual = 0, No Iterations 0
time step continuity errors : sum local = 4.24661e-11, global = -6.58995e-13, cumulative = -1.78178e-07
DICPCG:  Solving for p_rgh, Initial residual = 5.57677e-07, Final residual = 9.68333e-09, No Iterations 21
diagonal:  Solving for rho, Initial residual = 0, Final residual = 0, No Iterations 0
time step continuity errors : sum local = 1.14859e-12, global = 5.78961e-13, cumulative = -1.78178e-07
DILUPBiCGStab:  Solving for epsilon, Initial residual = 8.4418e-07, Final residual = 8.4418e-07, No Iterations 0
DILUPBiCGStab:  Solving for k, Initial residual = 8.16667e-07, Final residual = 8.16667e-07, No Iterations 0
ExecutionTime = 0.09 s  ClockTime = 0 s

Courant Number mean: 0.00635849 max: 0.0329689
Time = 1800.31

diagonal:  Solving for rho, Initial residual = 0, Final residual = 0, No Iterations 0
DILUPBiCGStab:  Solving for Ux, Initial residual = 4.15886e-06, Final residual = 5.19924e-11, No Iterations 1
DILUPBiCGStab:  Solving for Uy, Initial residual = 3.15067e-06, Final residual = 5.21267e-11, No Iterations 1
DILUPBiCGStab:  Solving for h, Initial residual = 3.40331e-06, Final residual = 6.04454e-11, No Iterations 1
DICPCG:  Solving for p_rgh, Initial residual = 2.15882e-05, Final residual = 1.46848e-07, No Iterations 22
diagonal:  Solving for rho, Initial residual = 0, Final residual = 0, No Iterations 0
time step continuity errors : sum local = 1.51447e-11, global = -2.47253e-13, cumulative = -1.78178e-07
DICPCG:  Solving for p_rgh, Initial residual = 1.77331e-07, Final residual = 7.08842e-09, No Iterations 13
diagonal:  Solving for rho, Initial residual = 0, Final residual = 0, No Iterations 0
time step continuity errors : sum local = 7.5946e-13, global = 8.05672e-14, cumulative = -1.78178e-07
DILUPBiCGStab:  Solving for epsilon, Initial residual = 8.46038e-07, Final residual = 8.46038e-07, No Iterations 0
DILUPBiCGStab:  Solving for k, Initial residual = 8.16405e-07, Final residual = 8.16405e-07, No Iterations 0
ExecutionTime = 0.09 s  ClockTime = 0 s

Courant Number mean: 0.0063585 max: 0.0329691
Time = 1800.32

diagonal:  Solving for rho, Initial residual = 0, Final residual = 0, No Iterations 0
DILUPBiCGStab:  Solving for Ux, Initial residual = 4.28019e-06, Final residual = 5.32602e-11, No Iterations 1
DILUPBiCGStab:  Solving for Uy, Initial residual = 3.30992e-06, Final residual = 5.43255e-11, No Iterations 1
DILUPBiCGStab:  Solving for h, Initial residual = 3.26404e-06, Final residual = 5.87469e-11, No Iterations 1
DICPCG:  Solving for p_rgh, Initial residual = 2.49217e-05, Final residual = 2.36378e-07, No Iterations 20
diagonal:  Solving for rho, Initial residual = 0, Final residual = 0, No Iterations 0
time step continuity errors : sum local = 2.43839e-11, global = 9.38593e-14, cumulative = -1.78178e-07
DICPCG:  Solving for p_rgh, Initial residual = 3.19764e-07, Final residual = 5.28582e-09, No Iterations 16
diagonal:  Solving for rho, Initial residual = 0, Final residual = 0, No Iterations 0
time step continuity errors : sum local = 6.26029e-13, global = -1.87418e-13, cumulative = -1.78178e-07
DILUPBiCGStab:  Solving for epsilon, Initial residual = 8.47619e-07, Final residual = 8.47619e-07, No Iterations 0
DILUPBiCGStab:  Solving for k, Initial residual = 8.1628e-07, Final residual = 8.1628e-07, No Iterations 0
ExecutionTime = 0.09 s  ClockTime = 0 s

Courant Number mean: 0.0063585 max: 0.0329693
Time = 1800.33

diagonal:  Solving for rho, Initial residual = 0, Final residual = 0, No Iterations 0
DILUPBiCGStab:  Solving for Ux, Initial residual = 3.72754e-06, Final residual = 4.61938e-11, No Iterations 1
DILUPBiCGStab:  Solving for Uy, Initial residual = 2.95296e-06, Final residual = 4.80915e-11, No Iterations 1
DILUPBiCGStab:  Solving for h, Initial residual = 3.18413e-06, Final residual = 5.72286e-11, No Iterations 1
DICPCG:  Solving for p_rgh, Initial residual = 4.41389e-05, Final residual = 3.00001e-07, No Iterations 20
diagonal:  Solving for rho, Initial residual = 0, Final residual = 0, No Iterations 0
time step continuity errors : sum local = 3.09816e-11, global = -2.07849e-14, cumulative = -1.78178e-07
DICPCG:  Solving for p_rgh, Initial residual = 4.98944e-07, Final residual = 7.03294e-09, No Iterations 17
diagonal:  Solving for rho, Initial residual = 0, Final residual = 0, No Iterations 0
time step continuity errors : sum local = 9.55532e-13, global = -4.99768e-13, cumulative = -1.78179e-07
DILUPBiCGStab:  Solving for epsilon, Initial residual = 8.48763e-07, Final residual = 8.48763e-07, No Iterations 0
DILUPBiCGStab:  Solving for k, Initial residual = 8.16541e-07, Final residual = 8.16541e-07, No Iterations 0
ExecutionTime = 0.1 s  ClockTime = 0 s

Courant Number mean: 0.0063585 max: 0.0329694
Time = 1800.34

diagonal:  Solving for rho, Initial residual = 0, Final residual = 0, No Iterations 0
DILUPBiCGStab:  Solving for Ux, Initial residual = 2.67106e-06, Final residual = 3.29563e-11, No Iterations 1
DILUPBiCGStab:  Solving for Uy, Initial residual = 2.20023e-06, Final residual = 3.53967e-11, No Iterations 1
DILUPBiCGStab:  Solving for h, Initial residual = 3.14911e-06, Final residual = 5.59243e-11, No Iterations 1
DICPCG:  Solving for p_rgh, Initial residual = 5.77864e-05, Final residual = 4.42792e-07, No Iterations 20
diagonal:  Solving for rho, Initial residual = 0, Final residual = 0, No Iterations 0
time step continuity errors : sum local = 4.57367e-11, global = -7.0062e-13, cumulative = -1.78179e-07
DICPCG:  Solving for p_rgh, Initial residual = 6.85226e-07, Final residual = 8.47436e-09, No Iterations 18
diagonal:  Solving for rho, Initial residual = 0, Final residual = 0, No Iterations 0
time step continuity errors : sum local = 1.15872e-12, global = -6.47002e-13, cumulative = -1.7818e-07
DILUPBiCGStab:  Solving for epsilon, Initial residual = 8.49393e-07, Final residual = 8.49393e-07, No Iterations 0
DILUPBiCGStab:  Solving for k, Initial residual = 8.17184e-07, Final residual = 8.17184e-07, No Iterations 0
ExecutionTime = 0.1 s  ClockTime = 0 s

Courant Number mean: 0.00635851 max: 0.0329694
Time = 1800.35

diagonal:  Solving for rho, Initial residual = 0, Final residual = 0, No Iterations 0
DILUPBiCGStab:  Solving for Ux, Initial residual = 1.33881e-06, Final residual = 1.63646e-11, No Iterations 1
DILUPBiCGStab:  Solving for Uy, Initial residual = 1.22224e-06, Final residual = 1.89158e-11, No Iterations 1
DILUPBiCGStab:  Solving for h, Initial residual = 3.12429e-06, Final residual = 5.48089e-11, No Iterations 1
DICPCG:  Solving for p_rgh, Initial residual = 6.3935e-05, Final residual = 5.51456e-07, No Iterations 20
diagonal:  Solving for rho, Initial residual = 0, Final residual = 0, No Iterations 0
time step continuity errors : sum local = 5.69796e-11, global = -8.17265e-13, cumulative = -1.78181e-07
DICPCG:  Solving for p_rgh, Initial residual = 7.77062e-07, Final residual = 7.78109e-09, No Iterations 22
diagonal:  Solving for rho, Initial residual = 0, Final residual = 0, No Iterations 0
time step continuity errors : sum local = 1.18793e-12, global = -7.47505e-13, cumulative = -1.78181e-07
DILUPBiCGStab:  Solving for epsilon, Initial residual = 8.49521e-07, Final residual = 8.49521e-07, No Iterations 0
DILUPBiCGStab:  Solving for k, Initial residual = 8.1727e-07, Final residual = 8.1727e-07, No Iterations 0
ExecutionTime = 0.1 s  ClockTime = 0 s

Courant Number mean: 0.0063585 max: 0.0329694
Time = 1800.36

diagonal:  Solving for rho, Initial residual = 0, Final residual = 0, No Iterations 0
DILUPBiCGStab:  Solving for Ux, Initial residual = 1.12285e-07, Final residual = 1.12285e-07, No Iterations 0
DILUPBiCGStab:  Solving for Uy, Initial residual = 3.25004e-07, Final residual = 3.25004e-07, No Iterations 0
DILUPBiCGStab:  Solving for h, Initial residual = 3.09043e-06, Final residual = 5.37954e-11, No Iterations 1
DICPCG:  Solving for p_rgh, Initial residual = 5.95075e-05, Final residual = 4.80679e-07, No Iterations 18
diagonal:  Solving for rho, Initial residual = 0, Final residual = 0, No Iterations 0
time step continuity errors : sum local = 4.99056e-11, global = -2.37766e-12, cumulative = -1.78184e-07
DICPCG:  Solving for p_rgh, Initial residual = 7.0817e-07, Final residual = 9.24591e-09, No Iterations 22
diagonal:  Solving for rho, Initial residual = 0, Final residual = 0, No Iterations 0
time step continuity errors : sum local = 1.14024e-12, global = -6.73243e-13, cumulative = -1.78184e-07
DILUPBiCGStab:  Solving for epsilon, Initial residual = 8.49231e-07, Final residual = 8.49231e-07, No Iterations 0
DILUPBiCGStab:  Solving for k, Initial residual = 8.16863e-07, Final residual = 8.16863e-07, No Iterations 0
ExecutionTime = 0.1 s  ClockTime = 0 s

Courant Number mean: 0.0063585 max: 0.0329694
Time = 1800.37

diagonal:  Solving for rho, Initial residual = 0, Final residual = 0, No Iterations 0
DILUPBiCGStab:  Solving for Ux, Initial residual = 1.25393e-06, Final residual = 1.59549e-11, No Iterations 1
DILUPBiCGStab:  Solving for Uy, Initial residual = 9.72821e-07, Final residual = 9.72821e-07, No Iterations 0
DILUPBiCGStab:  Solving for h, Initial residual = 3.04174e-06, Final residual = 5.28916e-11, No Iterations 1
DICPCG:  Solving for p_rgh, Initial residual = 4.65315e-05, Final residual = 3.27106e-07, No Iterations 16
diagonal:  Solving for rho, Initial residual = 0, Final residual = 0, No Iterations 0
time step continuity errors : sum local = 3.3999e-11, global = 8.2133e-13, cumulative = -1.78184e-07
DICPCG:  Solving for p_rgh, Initial residual = 6.91459e-07, Final residual = 9.62927e-09, No Iterations 20
diagonal:  Solving for rho, Initial residual = 0, Final residual = 0, No Iterations 0
time step continuity errors : sum local = 1.2132e-12, global = -4.88665e-13, cumulative = -1.78184e-07
DILUPBiCGStab:  Solving for epsilon, Initial residual = 8.48661e-07, Final residual = 8.48661e-07, No Iterations 0
DILUPBiCGStab:  Solving for k, Initial residual = 8.16669e-07, Final residual = 8.16669e-07, No Iterations 0
ExecutionTime = 0.11 s  ClockTime = 0 s

Courant Number mean: 0.0063585 max: 0.0329693
Time = 1800.38

diagonal:  Solving for rho, Initial residual = 0, Final residual = 0, No Iterations 0
DILUPBiCGStab:  Solving for Ux, Initial residual = 2.10867e-06, Final residual = 2.64788e-11, No Iterations 1
DILUPBiCGStab:  Solving for Uy, Initial residual = 1.59107e-06, Final residual = 2.58411e-11, No Iterations 1
DILUPBiCGStab:  Solving for h, Initial residual = 2.98913e-06, Final residual = 5.20716e-11, No Iterations 1
DICPCG:  Solving for p_rgh, Initial residual = 2.84174e-05, Final residual = 2.31521e-07, No Iterations 21
diagonal:  Solving for rho, Initial residual = 0, Final residual = 0, No Iterations 0
time step continuity errors : sum local = 2.41721e-11, global = 2.02431e-13, cumulative = -1.78184e-07
DICPCG:  Solving for p_rgh, Initial residual = 3.03768e-07, Final residual = 9.29705e-09, No Iterations 18
diagonal:  Solving for rho, Initial residual = 0, Final residual = 0, No Iterations 0
time step continuity errors : sum local = 9.93719e-13, global = -2.58224e-13, cumulative = -1.78184e-07
DILUPBiCGStab:  Solving for epsilon, Initial residual = 8.47972e-07, Final residual = 8.47972e-07, No Iterations 0
DILUPBiCGStab:  Solving for k, Initial residual = 8.16907e-07, Final residual = 8.16907e-07, No Iterations 0
ExecutionTime = 0.11 s  ClockTime = 0 s

Courant Number mean: 0.0063585 max: 0.0329692
Time = 1800.39

diagonal:  Solving for rho, Initial residual = 0, Final residual = 0, No Iterations 0
DILUPBiCGStab:  Solving for Ux, Initial residual = 2.53598e-06, Final residual = 3.16516e-11, No Iterations 1
DILUPBiCGStab:  Solving for Uy, Initial residual = 1.94999e-06, Final residual = 3.14991e-11, No Iterations 1
DILUPBiCGStab:  Solving for h, Initial residual = 2.94663e-06, Final residual = 5.12951e-11, No Iterations 1
DICPCG:  Solving for p_rgh, Initial residual = 1.24991e-05, Final residual = 7.49906e-08, No Iterations 22
diagonal:  Solving for rho, Initial residual = 0, Final residual = 0, No Iterations 0
time step continuity errors : sum local = 7.80654e-12, global = -2.35608e-14, cumulative = -1.78184e-07
DICPCG:  Solving for p_rgh, Initial residual = 8.28937e-08, Final residual = 7.69577e-09, No Iterations 6
diagonal:  Solving for rho, Initial residual = 0, Final residual = 0, No Iterations 0
time step continuity errors : sum local = 8.0273e-13, global = 1.68654e-15, cumulative = -1.78184e-07
DILUPBiCGStab:  Solving for epsilon, Initial residual = 8.47322e-07, Final residual = 8.47322e-07, No Iterations 0
DILUPBiCGStab:  Solving for k, Initial residual = 8.17243e-07, Final residual = 8.17243e-07, No Iterations 0
ExecutionTime = 0.11 s  ClockTime = 0 s

Courant Number mean: 0.00635849 max: 0.032969
Time = 1800.4

diagonal:  Solving for rho, Initial residual = 0, Final residual = 0, No Iterations 0
DILUPBiCGStab:  Solving for Ux, Initial residual = 2.52347e-06, Final residual = 3.13633e-11, No Iterations 1
DILUPBiCGStab:  Solving for Uy, Initial residual = 1.97989e-06, Final residual = 3.17687e-11, No Iterations 1
DILUPBiCGStab:  Solving for h, Initial residual = 2.92417e-06, Final residual = 5.05794e-11, No Iterations 1
DICPCG:  Solving for p_rgh, Initial residual = 1.8193e-05, Final residual = 1.60572e-07, No Iterations 18
diagonal:  Solving for rho, Initial residual = 0, Final residual = 0, No Iterations 0
time step continuity errors : sum local = 1.6835e-11, global = -5.57088e-14, cumulative = -1.78184e-07
DICPCG:  Solving for p_rgh, Initial residual = 2.33661e-07, Final residual = 6.55429e-09, No Iterations 16
diagonal:  Solving for rho, Initial residual = 0, Final residual = 0, No Iterations 0
time step continuity errors : sum local = 7.20251e-13, global = 1.21496e-13, cumulative = -1.78184e-07
DILUPBiCGStab:  Solving for epsilon, Initial residual = 8.4684e-07, Final residual = 8.4684e-07, No Iterations 0
DILUPBiCGStab:  Solving for k, Initial residual = 8.17578e-07, Final residual = 8.17578e-07, No Iterations 0
ExecutionTime = 0.11 s  ClockTime = 0 s

Courant Number mean: 0.00635849 max: 0.0329689
Time = 1800.41

diagonal:  Solving for rho, Initial residual = 0, Final residual = 0, No Iterations 0
DILUPBiCGStab:  Solving for Ux, Initial residual = 2.12901e-06, Final residual = 2.6365e-11, No Iterations 1
DILUPBiCGStab:  Solving for Uy, Initial residual = 1.71698e-06, Final residual = 2.72314e-11, No Iterations 1
DILUPBiCGStab:  Solving for h, Initial residual = 2.92299e-06, Final residual = 4.99588e-11, No Iterations 1
DICPCG:  Solving for p_rgh, Initial residual = 2.81749e-05, Final residual = 1.99018e-07, No Iterations 20
diagonal:  Solving for rho, Initial residual = 0, Final residual = 0, No Iterations 0
time step continuity errors : sum local = 2.05079e-11, global = -1.43576e-13, cumulative = -1.78184e-07
DICPCG:  Solving for p_rgh, Initial residual = 3.21725e-07, Final residual = 8.24697e-09, No Iterations 16
diagonal:  Solving for rho, Initial residual = 0, Final residual = 0, No Iterations 0
time step continuity errors : sum local = 9.4025e-13, global = 2.94398e-13, cumulative = -1.78184e-07
DILUPBiCGStab:  Solving for epsilon, Initial residual = 8.46614e-07, Final residual = 8.46614e-07, No Iterations 0
DILUPBiCGStab:  Solving for k, Initial residual = 8.17873e-07, Final residual = 8.17873e-07, No Iterations 0
ExecutionTime = 0.11 s  ClockTime = 0 s

Courant Number mean: 0.00635849 max: 0.0329689
Time = 1800.42

diagonal:  Solving for rho, Initial residual = 0, Final residual = 0, No Iterations 0
DILUPBiCGStab:  Solving for Ux, Initial residual = 1.46094e-06, Final residual = 1.8012e-11, No Iterations 1
DILUPBiCGStab:  Solving for Uy, Initial residual = 1.24031e-06, Final residual = 1.91476e-11, No Iterations 1
DILUPBiCGStab:  Solving for h, Initial residual = 2.92296e-06, Final residual = 4.93698e-11, No Iterations 1
DICPCG:  Solving for p_rgh, Initial residual = 3.55216e-05, Final residual = 2.89942e-07, No Iterations 20
diagonal:  Solving for rho, Initial residual = 0, Final residual = 0, No Iterations 0
time step continuity errors : sum local = 2.99207e-11, global = 3.16719e-13, cumulative = -1.78184e-07
DICPCG:  Solving for p_rgh, Initial residual = 4.33476e-07, Final residual = 8.76886e-09, No Iterations 17
diagonal:  Solving for rho, Initial residual = 0, Final residual = 0, No Iterations 0
time step continuity errors : sum local = 1.01693e-12, global = 3.68618e-13, cumulative = -1.78183e-07
DILUPBiCGStab:  Solving for epsilon, Initial residual = 8.46678e-07, Final residual = 8.46678e-07, No Iterations 0
DILUPBiCGStab:  Solving for k, Initial residual = 8.18082e-07, Final residual = 8.18082e-07, No Iterations 0
ExecutionTime = 0.12 s  ClockTime = 0 s

Courant Number mean: 0.00635849 max: 0.0329688
Time = 1800.43

diagonal:  Solving for rho, Initial residual = 0, Final residual = 0, No Iterations 0
DILUPBiCGStab:  Solving for Ux, Initial residual = 6.5664e-07, Final residual = 6.5664e-07, No Iterations 0
DILUPBiCGStab:  Solving for Uy, Initial residual = 6.56628e-07, Final residual = 6.56628e-07, No Iterations 0
DILUPBiCGStab:  Solving for h, Initial residual = 2.91026e-06, Final residual = 4.86535e-11, No Iterations 1
DICPCG:  Solving for p_rgh, Initial residual = 3.78203e-05, Final residual = 3.43923e-07, No Iterations 20
diagonal:  Solving for rho, Initial residual = 0, Final residual = 0, No Iterations 0
time step continuity errors : sum local = 3.55051e-11, global = 3.61757e-13, cumulative = -1.78183e-07
DICPCG:  Solving for p_rgh, Initial residual = 3.86728e-07, Final residual = 9.53164e-09, No Iterations 16
diagonal:  Solving for rho, Initial residual = 0, Final residual = 0, No Iterations 0
time step continuity errors : sum local = 1.01639e-12, global = 2.0471e-13, cumulative = -1.78183e-07
DILUPBiCGStab:  Solving for epsilon, Initial residual = 8.47015e-07, Final residual = 8.47015e-07, No Iterations 0
DILUPBiCGStab:  Solving for k, Initial residual = 8.182e-07, Final residual = 8.182e-07, No Iterations 0
ExecutionTime = 0.12 s  ClockTime = 0 s

Courant Number mean: 0.00635849 max: 0.0329688
Time = 1800.44

diagonal:  Solving for rho, Initial residual = 0, Final residual = 0, No Iterations 0
DILUPBiCGStab:  Solving for Ux, Initial residual = 1.86341e-07, Final residual = 1.86341e-07, No Iterations 0
DILUPBiCGStab:  Solving for Uy, Initial residual = 2.83238e-07, Final residual = 2.83238e-07, No Iterations 0
DILUPBiCGStab:  Solving for h, Initial residual = 2.87932e-06, Final residual = 4.77968e-11, No Iterations 1
DICPCG:  Solving for p_rgh, Initial residual = 3.40485e-05, Final residual = 3.0766e-07, No Iterations 17
diagonal:  Solving for rho, Initial residual = 0, Final residual = 0, No Iterations 0
time step continuity errors : sum local = 3.17147e-11, global = 1.23972e-12, cumulative = -1.78182e-07
DICPCG:  Solving for p_rgh, Initial residual = 4.76461e-07, Final residual = 7.35899e-09, No Iterations 21
diagonal:  Solving for rho, Initial residual = 0, Final residual = 0, No Iterations 0
time step continuity errors : sum local = 8.76651e-13, global = 3.87757e-13, cumulative = -1.78181e-07
DILUPBiCGStab:  Solving for epsilon, Initial residual = 8.4757e-07, Final residual = 8.4757e-07, No Iterations 0
DILUPBiCGStab:  Solving for k, Initial residual = 8.18235e-07, Final residual = 8.18235e-07, No Iterations 0
ExecutionTime = 0.12 s  ClockTime = 0 s

Courant Number mean: 0.00635849 max: 0.0329689
Time = 1800.45

diagonal:  Solving for rho, Initial residual = 0, Final residual = 0, No Iterations 0
DILUPBiCGStab:  Solving for Ux, Initial residual = 8.43383e-07, Final residual = 8.43383e-07, No Iterations 0
DILUPBiCGStab:  Solving for Uy, Initial residual = 6.70887e-07, Final residual = 6.70887e-07, No Iterations 0
DILUPBiCGStab:  Solving for h, Initial residual = 2.83043e-06, Final residual = 4.68278e-11, No Iterations 1
DICPCG:  Solving for p_rgh, Initial residual = 2.57193e-05, Final residual = 2.11449e-07, No Iterations 16
diagonal:  Solving for rho, Initial residual = 0, Final residual = 0, No Iterations 0
time step continuity errors : sum local = 2.20237e-11, global = -9.15074e-13, cumulative = -1.78182e-07
DICPCG:  Solving for p_rgh, Initial residual = 5.01257e-07, Final residual = 9.93974e-09, No Iterations 21
diagonal:  Solving for rho, Initial residual = 0, Final residual = 0, No Iterations 0
time step continuity errors : sum local = 1.12403e-12, global = 2.74315e-13, cumulative = -1.78182e-07
DILUPBiCGStab:  Solving for epsilon, Initial residual = 8.48258e-07, Final residual = 8.48258e-07, No Iterations 0
DILUPBiCGStab:  Solving for k, Initial residual = 8.18206e-07, Final residual = 8.18206e-07, No Iterations 0
ExecutionTime = 0.12 s  ClockTime = 0 s

Courant Number mean: 0.00635849 max: 0.0329689
Time = 1800.46

diagonal:  Solving for rho, Initial residual = 0, Final residual = 0, No Iterations 0
DILUPBiCGStab:  Solving for Ux, Initial residual = 1.30009e-06, Final residual = 1.63236e-11, No Iterations 1
DILUPBiCGStab:  Solving for Uy, Initial residual = 1.01628e-06, Final residual = 1.70648e-11, No Iterations 1
DILUPBiCGStab:  Solving for h, Initial residual = 2.77234e-06, Final residual = 4.57836e-11, No Iterations 1
DICPCG:  Solving for p_rgh, Initial residual = 1.5377e-05, Final residual = 1.32596e-07, No Iterations 21
diagonal:  Solving for rho, Initial residual = 0, Final residual = 0, No Iterations 0
time step continuity errors : sum local = 1.38642e-11, global = -2.34922e-13, cumulative = -1.78182e-07
DICPCG:  Solving for p_rgh, Initial residual = 1.68625e-07, Final residual = 7.52362e-09, No Iterations 15
diagonal:  Solving for rho, Initial residual = 0, Final residual = 0, No Iterations 0
time step continuity errors : sum local = 7.91209e-13, global = 1.17834e-13, cumulative = -1.78182e-07
DILUPBiCGStab:  Solving for epsilon, Initial residual = 8.48981e-07, Final residual = 8.48981e-07, No Iterations 0
DILUPBiCGStab:  Solving for k, Initial residual = 8.18157e-07, Final residual = 8.18157e-07, No Iterations 0
ExecutionTime = 0.13 s  ClockTime = 0 s

Courant Number mean: 0.00635849 max: 0.032969
Time = 1800.47

diagonal:  Solving for rho, Initial residual = 0, Final residual = 0, No Iterations 0
DILUPBiCGStab:  Solving for Ux, Initial residual = 1.49936e-06, Final residual = 1.87404e-11, No Iterations 1
DILUPBiCGStab:  Solving for Uy, Initial residual = 1.18824e-06, Final residual = 1.96894e-11, No Iterations 1
DILUPBiCGStab:  Solving for h, Initial residual = 2.71133e-06, Final residual = 4.47508e-11, No Iterations 1
DICPCG:  Solving for p_rgh, Initial residual = 8.65408e-06, Final residual = 7.15112e-08, No Iterations 21
diagonal:  Solving for rho, Initial residual = 0, Final residual = 0, No Iterations 0
time step continuity errors : sum local = 7.62435e-12, global = -3.1052e-13, cumulative = -1.78182e-07
DICPCG:  Solving for p_rgh, Initial residual = 8.0182e-08, Final residual = 6.28715e-09, No Iterations 5
diagonal:  Solving for rho, Initial residual = 0, Final residual = 0, No Iterations 0
time step continuity errors : sum local = 6.63854e-13, global = -1.03311e-13, cumulative = -1.78182e-07
DILUPBiCGStab:  Solving for epsilon, Initial residual = 8.4965e-07, Final residual = 8.4965e-07, No Iterations 0
DILUPBiCGStab:  Solving for k, Initial residual = 8.1811e-07, Final residual = 8.1811e-07, No Iterations 0
ExecutionTime = 0.13 s  ClockTime = 0 s

Courant Number mean: 0.00635849 max: 0.0329691
Time = 1800.48

diagonal:  Solving for rho, Initial residual = 0, Final residual = 0, No Iterations 0
DILUPBiCGStab:  Solving for Ux, Initial residual = 1.44329e-06, Final residual = 1.79883e-11, No Iterations 1
DILUPBiCGStab:  Solving for Uy, Initial residual = 1.16849e-06, Final residual = 1.9177e-11, No Iterations 1
DILUPBiCGStab:  Solving for h, Initial residual = 2.65634e-06, Final residual = 4.38472e-11, No Iterations 1
DICPCG:  Solving for p_rgh, Initial residual = 1.2814e-05, Final residual = 9.02321e-08, No Iterations 18
diagonal:  Solving for rho, Initial residual = 0, Final residual = 0, No Iterations 0
time step continuity errors : sum local = 9.47883e-12, global = -2.38491e-13, cumulative = -1.78183e-07
DICPCG:  Solving for p_rgh, Initial residual = 1.4087e-07, Final residual = 7.55398e-09, No Iterations 15
diagonal:  Solving for rho, Initial residual = 0, Final residual = 0, No Iterations 0
time step continuity errors : sum local = 7.85896e-13, global = -9.81235e-14, cumulative = -1.78183e-07
DILUPBiCGStab:  Solving for epsilon, Initial residual = 8.50194e-07, Final residual = 8.50194e-07, No Iterations 0
DILUPBiCGStab:  Solving for k, Initial residual = 8.18072e-07, Final residual = 8.18072e-07, No Iterations 0
ExecutionTime = 0.13 s  ClockTime = 0 s

Courant Number mean: 0.0063585 max: 0.0329691
Time = 1800.49

diagonal:  Solving for rho, Initial residual = 0, Final residual = 0, No Iterations 0
DILUPBiCGStab:  Solving for Ux, Initial residual = 1.17356e-06, Final residual = 1.45895e-11, No Iterations 1
DILUPBiCGStab:  Solving for Uy, Initial residual = 9.8365e-07, Final residual = 9.8365e-07, No Iterations 0
DILUPBiCGStab:  Solving for h, Initial residual = 2.61014e-06, Final residual = 4.29668e-11, No Iterations 1
DICPCG:  Solving for p_rgh, Initial residual = 1.77843e-05, Final residual = 1.23696e-07, No Iterations 20
diagonal:  Solving for rho, Initial residual = 0, Final residual = 0, No Iterations 0
time step continuity errors : sum local = 1.27562e-11, global = -8.58551e-14, cumulative = -1.78183e-07
DICPCG:  Solving for p_rgh, Initial residual = 3.36903e-07, Final residual = 9.78121e-09, No Iterations 15
diagonal:  Solving for rho, Initial residual = 0, Final residual = 0, No Iterations 0
time step continuity errors : sum local = 1.02105e-12, global = 5.97353e-14, cumulative = -1.78183e-07
DILUPBiCGStab:  Solving for epsilon, Initial residual = 8.50566e-07, Final residual = 8.50566e-07, No Iterations 0
DILUPBiCGStab:  Solving for k, Initial residual = 8.18067e-07, Final residual = 8.18067e-07, No Iterations 0
ExecutionTime = 0.13 s  ClockTime = 0 s

Courant Number mean: 0.0063585 max: 0.0329691
Time = 1800.5

diagonal:  Solving for rho, Initial residual = 0, Final residual = 0, No Iterations 0
DILUPBiCGStab:  Solving for Ux, Initial residual = 7.58094e-07, Final residual = 7.58094e-07, No Iterations 0
DILUPBiCGStab:  Solving for Uy, Initial residual = 6.84542e-07, Final residual = 6.84542e-07, No Iterations 0
DILUPBiCGStab:  Solving for h, Initial residual = 2.57386e-06, Final residual = 4.21347e-11, No Iterations 1
DICPCG:  Solving for p_rgh, Initial residual = 2.17591e-05, Final residual = 1.86233e-07, No Iterations 20
diagonal:  Solving for rho, Initial residual = 0, Final residual = 0, No Iterations 0
time step continuity errors : sum local = 1.91815e-11, global = -3.58689e-13, cumulative = -1.78183e-07
DICPCG:  Solving for p_rgh, Initial residual = 2.41761e-07, Final residual = 9.46228e-09, No Iterations 14
diagonal:  Solving for rho, Initial residual = 0, Final residual = 0, No Iterations 0
time step continuity errors : sum local = 1.06363e-12, global = -2.89048e-13, cumulative = -1.78183e-07
DILUPBiCGStab:  Solving for epsilon, Initial residual = 8.50753e-07, Final residual = 8.50753e-07, No Iterations 0
DILUPBiCGStab:  Solving for k, Initial residual = 8.18098e-07, Final residual = 8.18098e-07, No Iterations 0
ExecutionTime = 0.14 s  ClockTime = 0 s

Courant Number mean: 0.0063585 max: 0.0329692
Time = 1800.51

diagonal:  Solving for rho, Initial residual = 0, Final residual = 0, No Iterations 0
DILUPBiCGStab:  Solving for Ux, Initial residual = 2.81873e-07, Final residual = 2.81873e-07, No Iterations 0
DILUPBiCGStab:  Solving for Uy, Initial residual = 3.47624e-07, Final residual = 3.47624e-07, No Iterations 0
DILUPBiCGStab:  Solving for h, Initial residual = 2.54243e-06, Final residual = 4.13887e-11, No Iterations 1
DICPCG:  Solving for p_rgh, Initial residual = 2.23483e-05, Final residual = 2.03888e-07, No Iterations 20
diagonal:  Solving for rho, Initial residual = 0, Final residual = 0, No Iterations 0
time step continuity errors : sum local = 2.10019e-11, global = -3.88691e-13, cumulative = -1.78184e-07
DICPCG:  Solving for p_rgh, Initial residual = 2.48478e-07, Final residual = 9.18533e-09, No Iterations 15
diagonal:  Solving for rho, Initial residual = 0, Final residual = 0, No Iterations 0
time step continuity errors : sum local = 9.82631e-13, global = -8.20731e-14, cumulative = -1.78184e-07
DILUPBiCGStab:  Solving for epsilon, Initial residual = 8.50769e-07, Final residual = 8.50769e-07, No Iterations 0
DILUPBiCGStab:  Solving for k, Initial residual = 8.18151e-07, Final residual = 8.18151e-07, No Iterations 0
ExecutionTime = 0.14 s  ClockTime = 0 s

Courant Number mean: 0.0063585 max: 0.0329691
Time = 1800.52

diagonal:  Solving for rho, Initial residual = 0, Final residual = 0, No Iterations 0
DILUPBiCGStab:  Solving for Ux, Initial residual = 2.17823e-07, Final residual = 2.17823e-07, No Iterations 0
DILUPBiCGStab:  Solving for Uy, Initial residual = 2.63519e-07, Final residual = 2.63519e-07, No Iterations 0
DILUPBiCGStab:  Solving for h, Initial residual = 2.51323e-06, Final residual = 4.06958e-11, No Iterations 1
DICPCG:  Solving for p_rgh, Initial residual = 1.95598e-05, Final residual = 1.72514e-07, No Iterations 16
diagonal:  Solving for rho, Initial residual = 0, Final residual = 0, No Iterations 0
time step continuity errors : sum local = 1.79799e-11, global = -6.40139e-13, cumulative = -1.78184e-07
DICPCG:  Solving for p_rgh, Initial residual = 2.91192e-07, Final residual = 7.50625e-09, No Iterations 20
diagonal:  Solving for rho, Initial residual = 0, Final residual = 0, No Iterations 0
time step continuity errors : sum local = 8.53165e-13, global = -2.14269e-13, cumulative = -1.78185e-07
DILUPBiCGStab:  Solving for epsilon, Initial residual = 8.50652e-07, Final residual = 8.50652e-07, No Iterations 0
DILUPBiCGStab:  Solving for k, Initial residual = 8.18233e-07, Final residual = 8.18233e-07, No Iterations 0
ExecutionTime = 0.14 s  ClockTime = 0 s

Courant Number mean: 0.00635849 max: 0.0329691
Time = 1800.53

diagonal:  Solving for rho, Initial residual = 0, Final residual = 0, No Iterations 0
DILUPBiCGStab:  Solving for Ux, Initial residual = 5.91452e-07, Final residual = 5.91452e-07, No Iterations 0
DILUPBiCGStab:  Solving for Uy, Initial residual = 4.95299e-07, Final residual = 4.95299e-07, No Iterations 0
DILUPBiCGStab:  Solving for h, Initial residual = 2.48604e-06, Final residual = 4.00304e-11, No Iterations 1
DICPCG:  Solving for p_rgh, Initial residual = 1.45791e-05, Final residual = 1.43044e-07, No Iterations 17
diagonal:  Solving for rho, Initial residual = 0, Final residual = 0, No Iterations 0
time step continuity errors : sum local = 1.46921e-11, global = 4.38762e-13, cumulative = -1.78184e-07
DICPCG:  Solving for p_rgh, Initial residual = 3.26609e-07, Final residual = 8.63547e-09, No Iterations 20
diagonal:  Solving for rho, Initial residual = 0, Final residual = 0, No Iterations 0
time step continuity errors : sum local = 9.46759e-13, global = -1.5176e-13, cumulative = -1.78184e-07
DILUPBiCGStab:  Solving for epsilon, Initial residual = 8.50456e-07, Final residual = 8.50456e-07, No Iterations 0
DILUPBiCGStab:  Solving for k, Initial residual = 8.18349e-07, Final residual = 8.18349e-07, No Iterations 0
ExecutionTime = 0.14 s  ClockTime = 0 s

Courant Number mean: 0.00635849 max: 0.0329691
Time = 1800.54

diagonal:  Solving for rho, Initial residual = 0, Final residual = 0, No Iterations 0
DILUPBiCGStab:  Solving for Ux, Initial residual = 8.33123e-07, Final residual = 8.33123e-07, No Iterations 0
DILUPBiCGStab:  Solving for Uy, Initial residual = 6.77943e-07, Final residual = 6.77943e-07, No Iterations 0
DILUPBiCGStab:  Solving for h, Initial residual = 2.4617e-06, Final residual = 3.94378e-11, No Iterations 1
DICPCG:  Solving for p_rgh, Initial residual = 9.32852e-06, Final residual = 8.66846e-08, No Iterations 20
diagonal:  Solving for rho, Initial residual = 0, Final residual = 0, No Iterations 0
time step continuity errors : sum local = 8.92558e-12, global = -4.44773e-14, cumulative = -1.78184e-07
DICPCG:  Solving for p_rgh, Initial residual = 2.99003e-07, Final residual = 8.42642e-09, No Iterations 16
diagonal:  Solving for rho, Initial residual = 0, Final residual = 0, No Iterations 0
time step continuity errors : sum local = 8.97691e-13, global = -7.9766e-14, cumulative = -1.78184e-07
DILUPBiCGStab:  Solving for epsilon, Initial residual = 8.50237e-07, Final residual = 8.50237e-07, No Iterations 0
DILUPBiCGStab:  Solving for k, Initial residual = 8.18477e-07, Final residual = 8.18477e-07, No Iterations 0
ExecutionTime = 0.14 s  ClockTime = 0 s

Courant Number mean: 0.00635849 max: 0.032969
Time = 1800.55

diagonal:  Solving for rho, Initial residual = 0, Final residual = 0, No Iterations 0
DILUPBiCGStab:  Solving for Ux, Initial residual = 9.20556e-07, Final residual = 9.20556e-07, No Iterations 0
DILUPBiCGStab:  Solving for Uy, Initial residual = 7.5584e-07, Final residual = 7.5584e-07, No Iterations 0
DILUPBiCGStab:  Solving for h, Initial residual = 2.44224e-06, Final residual = 3.88692e-11, No Iterations 1
DICPCG:  Solving for p_rgh, Initial residual = 7.08316e-06, Final residual = 5.92108e-08, No Iterations 20
diagonal:  Solving for rho, Initial residual = 0, Final residual = 0, No Iterations 0
time step continuity errors : sum local = 6.07227e-12, global = -9.62121e-14, cumulative = -1.78185e-07
DICPCG:  Solving for p_rgh, Initial residual = 2.71643e-07, Final residual = 9.10925e-09, No Iterations 15
diagonal:  Solving for rho, Initial residual = 0, Final residual = 0, No Iterations 0
time step continuity errors : sum local = 9.72012e-13, global = 9.62121e-15, cumulative = -1.78185e-07
DILUPBiCGStab:  Solving for epsilon, Initial residual = 8.50049e-07, Final residual = 8.50049e-07, No Iterations 0
DILUPBiCGStab:  Solving for k, Initial residual = 8.18602e-07, Final residual = 8.18602e-07, No Iterations 0
ExecutionTime = 0.15 s  ClockTime = 0 s

Courant Number mean: 0.00635849 max: 0.032969
Time = 1800.56

diagonal:  Solving for rho, Initial residual = 0, Final residual = 0, No Iterations 0
DILUPBiCGStab:  Solving for Ux, Initial residual = 8.59442e-07, Final residual = 8.59442e-07, No Iterations 0
DILUPBiCGStab:  Solving for Uy, Initial residual = 7.234e-07, Final residual = 7.234e-07, No Iterations 0
DILUPBiCGStab:  Solving for h, Initial residual = 2.42563e-06, Final residual = 3.83066e-11, No Iterations 1
DICPCG:  Solving for p_rgh, Initial residual = 9.28886e-06, Final residual = 6.19332e-08, No Iterations 20
diagonal:  Solving for rho, Initial residual = 0, Final residual = 0, No Iterations 0
time step continuity errors : sum local = 6.3404e-12, global = -1.35168e-13, cumulative = -1.78185e-07
DICPCG:  Solving for p_rgh, Initial residual = 2.27879e-07, Final residual = 8.96777e-09, No Iterations 15
diagonal:  Solving for rho, Initial residual = 0, Final residual = 0, No Iterations 0
time step continuity errors : sum local = 9.55497e-13, global = 8.17208e-14, cumulative = -1.78185e-07
DILUPBiCGStab:  Solving for epsilon, Initial residual = 8.49931e-07, Final residual = 8.49931e-07, No Iterations 0
DILUPBiCGStab:  Solving for k, Initial residual = 8.18715e-07, Final residual = 8.18715e-07, No Iterations 0
ExecutionTime = 0.15 s  ClockTime = 0 s

Courant Number mean: 0.00635849 max: 0.0329689
Time = 1800.57

diagonal:  Solving for rho, Initial residual = 0, Final residual = 0, No Iterations 0
DILUPBiCGStab:  Solving for Ux, Initial residual = 6.7822e-07, Final residual = 6.7822e-07, No Iterations 0
DILUPBiCGStab:  Solving for Uy, Initial residual = 5.99865e-07, Final residual = 5.99865e-07, No Iterations 0
DILUPBiCGStab:  Solving for h, Initial residual = 2.40853e-06, Final residual = 3.77396e-11, No Iterations 1
DICPCG:  Solving for p_rgh, Initial residual = 1.18124e-05, Final residual = 9.65582e-08, No Iterations 20
diagonal:  Solving for rho, Initial residual = 0, Final residual = 0, No Iterations 0
time step continuity errors : sum local = 9.9728e-12, global = 3.16508e-14, cumulative = -1.78185e-07
DICPCG:  Solving for p_rgh, Initial residual = 1.91644e-07, Final residual = 8.52274e-09, No Iterations 13
diagonal:  Solving for rho, Initial residual = 0, Final residual = 0, No Iterations 0
time step continuity errors : sum local = 9.27227e-13, global = 1.75808e-13, cumulative = -1.78184e-07
DILUPBiCGStab:  Solving for epsilon, Initial residual = 8.49906e-07, Final residual = 8.49906e-07, No Iterations 0
DILUPBiCGStab:  Solving for k, Initial residual = 8.18804e-07, Final residual = 8.18804e-07, No Iterations 0
ExecutionTime = 0.15 s  ClockTime = 0 s

Courant Number mean: 0.00635849 max: 0.0329689
Time = 1800.58

diagonal:  Solving for rho, Initial residual = 0, Final residual = 0, No Iterations 0
DILUPBiCGStab:  Solving for Ux, Initial residual = 4.20241e-07, Final residual = 4.20241e-07, No Iterations 0
DILUPBiCGStab:  Solving for Uy, Initial residual = 4.18059e-07, Final residual = 4.18059e-07, No Iterations 0
DILUPBiCGStab:  Solving for h, Initial residual = 2.38915e-06, Final residual = 3.71561e-11, No Iterations 1
DICPCG:  Solving for p_rgh, Initial residual = 1.36531e-05, Final residual = 1.24145e-07, No Iterations 20
diagonal:  Solving for rho, Initial residual = 0, Final residual = 0, No Iterations 0
time step continuity errors : sum local = 1.27566e-11, global = 9.73061e-14, cumulative = -1.78184e-07
DICPCG:  Solving for p_rgh, Initial residual = 1.60669e-07, Final residual = 6.96075e-09, No Iterations 11
diagonal:  Solving for rho, Initial residual = 0, Final residual = 0, No Iterations 0
time step continuity errors : sum local = 7.95201e-13, global = 2.89513e-13, cumulative = -1.78184e-07
DILUPBiCGStab:  Solving for epsilon, Initial residual = 8.4998e-07, Final residual = 8.4998e-07, No Iterations 0
DILUPBiCGStab:  Solving for k, Initial residual = 8.18868e-07, Final residual = 8.18868e-07, No Iterations 0
ExecutionTime = 0.15 s  ClockTime = 0 s

Courant Number mean: 0.00635849 max: 0.0329689
Time = 1800.59

diagonal:  Solving for rho, Initial residual = 0, Final residual = 0, No Iterations 0
DILUPBiCGStab:  Solving for Ux, Initial residual = 1.36524e-07, Final residual = 1.36524e-07, No Iterations 0
DILUPBiCGStab:  Solving for Uy, Initial residual = 2.23287e-07, Final residual = 2.23287e-07, No Iterations 0
DILUPBiCGStab:  Solving for h, Initial residual = 2.36626e-06, Final residual = 3.65579e-11, No Iterations 1
[...]
DILUPBiCGStab:  Solving for Ux, Initial residual = 7.00454e-09, Final residual = 7.00454e-09, No Iterations 0
DILUPBiCGStab:  Solving for Uy, Initial residual = 1.40523e-08, Final residual = 1.40523e-08, No Iterations 0
DILUPBiCGStab:  Solving for h, Initial residual = 9.97068e-07, Final residual = 9.97068e-07, No Iterations 0
DICPCG:  Solving for p_rgh, Initial residual = 1.30118e-08, Final residual = 8.55164e-09, No Iterations 1
diagonal:  Solving for rho, Initial residual = 0, Final residual = 0, No Iterations 0
time step continuity errors : sum local = 8.9006e-13, global = 7.72683e-13, cumulative = -1.78309e-07
DICPCG:  Solving for p_rgh, Initial residual = 9.41409e-09, Final residual = 9.41409e-09, No Iterations 0
diagonal:  Solving for rho, Initial residual = 0, Final residual = 0, No Iterations 0
time step continuity errors : sum local = 9.7032e-13, global = 7.74972e-13, cumulative = -1.78309e-07
DILUPBiCGStab:  Solving for epsilon, Initial residual = 8.51028e-07, Final residual = 8.51028e-07, No Iterations 0
DILUPBiCGStab:  Solving for k, Initial residual = 8.18708e-07, Final residual = 8.18708e-07, No Iterations 0
ExecutionTime = 2.24 s  ClockTime = 2 s

Courant Number mean: 0.00635853 max: 0.0329691
Time = 1810.09

diagonal:  Solving for rho, Initial residual = 0, Final residual = 0, No Iterations 0
DILUPBiCGStab:  Solving for Ux, Initial residual = 7.00044e-09, Final residual = 7.00044e-09, No Iterations 0
DILUPBiCGStab:  Solving for Uy, Initial residual = 1.40244e-08, Final residual = 1.40244e-08, No Iterations 0
DILUPBiCGStab:  Solving for h, Initial residual = 9.97068e-07, Final residual = 9.97068e-07, No Iterations 0
DICPCG:  Solving for p_rgh, Initial residual = 1.28668e-08, Final residual = 8.7854e-09, No Iterations 1
diagonal:  Solving for rho, Initial residual = 0, Final residual = 0, No Iterations 0
time step continuity errors : sum local = 9.1782e-13, global = 7.72082e-13, cumulative = -1.78308e-07
DICPCG:  Solving for p_rgh, Initial residual = 9.05299e-09, Final residual = 9.05299e-09, No Iterations 0
diagonal:  Solving for rho, Initial residual = 0, Final residual = 0, No Iterations 0
time step continuity errors : sum local = 9.5008e-13, global = 7.74382e-13, cumulative = -1.78307e-07
DILUPBiCGStab:  Solving for epsilon, Initial residual = 8.5102e-07, Final residual = 8.5102e-07, No Iterations 0
DILUPBiCGStab:  Solving for k, Initial residual = 8.18705e-07, Final residual = 8.18705e-07, No Iterations 0
ExecutionTime = 2.24 s  ClockTime = 2 s

Courant Number mean: 0.00635853 max: 0.0329691
Time = 1810.1

diagonal:  Solving for rho, Initial residual = 0, Final residual = 0, No Iterations 0
DILUPBiCGStab:  Solving for Ux, Initial residual = 6.99297e-09, Final residual = 6.99297e-09, No Iterations 0
DILUPBiCGStab:  Solving for Uy, Initial residual = 1.40206e-08, Final residual = 1.40206e-08, No Iterations 0
DILUPBiCGStab:  Solving for h, Initial residual = 9.97068e-07, Final residual = 9.97068e-07, No Iterations 0
DICPCG:  Solving for p_rgh, Initial residual = 1.29158e-08, Final residual = 8.49615e-09, No Iterations 1
diagonal:  Solving for rho, Initial residual = 0, Final residual = 0, No Iterations 0
time step continuity errors : sum local = 8.90579e-13, global = 7.71943e-13, cumulative = -1.78306e-07
DICPCG:  Solving for p_rgh, Initial residual = 9.48463e-09, Final residual = 9.48463e-09, No Iterations 0
diagonal:  Solving for rho, Initial residual = 0, Final residual = 0, No Iterations 0
time step continuity errors : sum local = 9.74515e-13, global = 7.74234e-13, cumulative = -1.78306e-07
DILUPBiCGStab:  Solving for epsilon, Initial residual = 8.51011e-07, Final residual = 8.51011e-07, No Iterations 0
DILUPBiCGStab:  Solving for k, Initial residual = 8.18702e-07, Final residual = 8.18702e-07, No Iterations 0
ExecutionTime = 2.24 s  ClockTime = 2 s

Courant Number mean: 0.00635853 max: 0.0329691
Time = 1810.11

diagonal:  Solving for rho, Initial residual = 0, Final residual = 0, No Iterations 0
DILUPBiCGStab:  Solving for Ux, Initial residual = 6.98931e-09, Final residual = 6.98931e-09, No Iterations 0
DILUPBiCGStab:  Solving for Uy, Initial residual = 1.39928e-08, Final residual = 1.39928e-08, No Iterations 0
DILUPBiCGStab:  Solving for h, Initial residual = 9.97068e-07, Final residual = 9.97068e-07, No Iterations 0
DICPCG:  Solving for p_rgh, Initial residual = 1.27915e-08, Final residual = 8.79128e-09, No Iterations 1
diagonal:  Solving for rho, Initial residual = 0, Final residual = 0, No Iterations 0
time step continuity errors : sum local = 9.17843e-13, global = 7.70416e-13, cumulative = -1.78305e-07
DICPCG:  Solving for p_rgh, Initial residual = 9.12531e-09, Final residual = 9.12531e-09, No Iterations 0
diagonal:  Solving for rho, Initial residual = 0, Final residual = 0, No Iterations 0
time step continuity errors : sum local = 9.49909e-13, global = 7.72717e-13, cumulative = -1.78304e-07
DILUPBiCGStab:  Solving for epsilon, Initial residual = 8.51003e-07, Final residual = 8.51003e-07, No Iterations 0
DILUPBiCGStab:  Solving for k, Initial residual = 8.18699e-07, Final residual = 8.18699e-07, No Iterations 0
ExecutionTime = 2.24 s  ClockTime = 2 s

Courant Number mean: 0.00635853 max: 0.0329691
Time = 1810.12

diagonal:  Solving for rho, Initial residual = 0, Final residual = 0, No Iterations 0
DILUPBiCGStab:  Solving for Ux, Initial residual = 6.98158e-09, Final residual = 6.98158e-09, No Iterations 0
DILUPBiCGStab:  Solving for Uy, Initial residual = 1.39896e-08, Final residual = 1.39896e-08, No Iterations 0
DILUPBiCGStab:  Solving for h, Initial residual = 9.97068e-07, Final residual = 9.97068e-07, No Iterations 0
DICPCG:  Solving for p_rgh, Initial residual = 1.29629e-08, Final residual = 8.54958e-09, No Iterations 1
diagonal:  Solving for rho, Initial residual = 0, Final residual = 0, No Iterations 0
time step continuity errors : sum local = 8.93644e-13, global = 7.69501e-13, cumulative = -1.78303e-07
DICPCG:  Solving for p_rgh, Initial residual = 9.40719e-09, Final residual = 9.40719e-09, No Iterations 0
diagonal:  Solving for rho, Initial residual = 0, Final residual = 0, No Iterations 0
time step continuity errors : sum local = 9.75921e-13, global = 7.71807e-13, cumulative = -1.78302e-07
DILUPBiCGStab:  Solving for epsilon, Initial residual = 8.50994e-07, Final residual = 8.50994e-07, No Iterations 0
DILUPBiCGStab:  Solving for k, Initial residual = 8.18697e-07, Final residual = 8.18697e-07, No Iterations 0
ExecutionTime = 2.24 s  ClockTime = 2 s

Courant Number mean: 0.00635853 max: 0.0329691
Time = 1810.13

diagonal:  Solving for rho, Initial residual = 0, Final residual = 0, No Iterations 0
DILUPBiCGStab:  Solving for Ux, Initial residual = 6.9774e-09, Final residual = 6.9774e-09, No Iterations 0
DILUPBiCGStab:  Solving for Uy, Initial residual = 1.39621e-08, Final residual = 1.39621e-08, No Iterations 0
DILUPBiCGStab:  Solving for h, Initial residual = 9.97068e-07, Final residual = 9.97068e-07, No Iterations 0
DICPCG:  Solving for p_rgh, Initial residual = 1.27616e-08, Final residual = 8.76783e-09, No Iterations 1
diagonal:  Solving for rho, Initial residual = 0, Final residual = 0, No Iterations 0
time step continuity errors : sum local = 9.14218e-13, global = 7.67278e-13, cumulative = -1.78302e-07
DICPCG:  Solving for p_rgh, Initial residual = 9.15556e-09, Final residual = 9.15556e-09, No Iterations 0
diagonal:  Solving for rho, Initial residual = 0, Final residual = 0, No Iterations 0
time step continuity errors : sum local = 9.44228e-13, global = 7.69577e-13, cumulative = -1.78301e-07
DILUPBiCGStab:  Solving for epsilon, Initial residual = 8.50985e-07, Final residual = 8.50985e-07, No Iterations 0
DILUPBiCGStab:  Solving for k, Initial residual = 8.18694e-07, Final residual = 8.18694e-07, No Iterations 0
ExecutionTime = 2.25 s  ClockTime = 2 s

Courant Number mean: 0.00635853 max: 0.0329691
Time = 1810.14

diagonal:  Solving for rho, Initial residual = 0, Final residual = 0, No Iterations 0
DILUPBiCGStab:  Solving for Ux, Initial residual = 6.97048e-09, Final residual = 6.97048e-09, No Iterations 0
DILUPBiCGStab:  Solving for Uy, Initial residual = 1.39581e-08, Final residual = 1.39581e-08, No Iterations 0
DILUPBiCGStab:  Solving for h, Initial residual = 9.97068e-07, Final residual = 9.97068e-07, No Iterations 0
DICPCG:  Solving for p_rgh, Initial residual = 1.29962e-08, Final residual = 8.6268e-09, No Iterations 1
diagonal:  Solving for rho, Initial residual = 0, Final residual = 0, No Iterations 0
time step continuity errors : sum local = 8.96321e-13, global = 7.65315e-13, cumulative = -1.783e-07
DICPCG:  Solving for p_rgh, Initial residual = 9.41407e-09, Final residual = 9.41407e-09, No Iterations 0
diagonal:  Solving for rho, Initial residual = 0, Final residual = 0, No Iterations 0
time step continuity errors : sum local = 9.76601e-13, global = 7.67624e-13, cumulative = -1.78299e-07
DILUPBiCGStab:  Solving for epsilon, Initial residual = 8.50977e-07, Final residual = 8.50977e-07, No Iterations 0
DILUPBiCGStab:  Solving for k, Initial residual = 8.18691e-07, Final residual = 8.18691e-07, No Iterations 0
ExecutionTime = 2.25 s  ClockTime = 2 s

Courant Number mean: 0.00635853 max: 0.0329691
Time = 1810.15

diagonal:  Solving for rho, Initial residual = 0, Final residual = 0, No Iterations 0
DILUPBiCGStab:  Solving for Ux, Initial residual = 6.9662e-09, Final residual = 6.9662e-09, No Iterations 0
DILUPBiCGStab:  Solving for Uy, Initial residual = 1.393e-08, Final residual = 1.393e-08, No Iterations 0
DILUPBiCGStab:  Solving for h, Initial residual = 9.97068e-07, Final residual = 9.97068e-07, No Iterations 0
DICPCG:  Solving for p_rgh, Initial residual = 1.29242e-08, Final residual = 8.69709e-09, No Iterations 1
diagonal:  Solving for rho, Initial residual = 0, Final residual = 0, No Iterations 0
time step continuity errors : sum local = 9.10082e-13, global = 7.62072e-13, cumulative = -1.78299e-07
DICPCG:  Solving for p_rgh, Initial residual = 9.05305e-09, Final residual = 9.05305e-09, No Iterations 0
diagonal:  Solving for rho, Initial residual = 0, Final residual = 0, No Iterations 0
time step continuity errors : sum local = 9.42073e-13, global = 7.64374e-13, cumulative = -1.78298e-07
DILUPBiCGStab:  Solving for epsilon, Initial residual = 8.50968e-07, Final residual = 8.50968e-07, No Iterations 0
DILUPBiCGStab:  Solving for k, Initial residual = 8.18688e-07, Final residual = 8.18688e-07, No Iterations 0
ExecutionTime = 2.25 s  ClockTime = 2 s

Courant Number mean: 0.00635853 max: 0.0329691
Time = 1810.16

diagonal:  Solving for rho, Initial residual = 0, Final residual = 0, No Iterations 0
DILUPBiCGStab:  Solving for Ux, Initial residual = 6.95904e-09, Final residual = 6.95904e-09, No Iterations 0
DILUPBiCGStab:  Solving for Uy, Initial residual = 1.39272e-08, Final residual = 1.39272e-08, No Iterations 0
DILUPBiCGStab:  Solving for h, Initial residual = 9.97067e-07, Final residual = 9.97067e-07, No Iterations 0
DICPCG:  Solving for p_rgh, Initial residual = 1.29263e-08, Final residual = 8.51157e-09, No Iterations 1
diagonal:  Solving for rho, Initial residual = 0, Final residual = 0, No Iterations 0
time step continuity errors : sum local = 8.8593e-13, global = 7.5872e-13, cumulative = -1.78297e-07
DICPCG:  Solving for p_rgh, Initial residual = 9.26742e-09, Final residual = 9.26742e-09, No Iterations 0
diagonal:  Solving for rho, Initial residual = 0, Final residual = 0, No Iterations 0
time step continuity errors : sum local = 9.66415e-13, global = 7.61036e-13, cumulative = -1.78296e-07
DILUPBiCGStab:  Solving for epsilon, Initial residual = 8.5096e-07, Final residual = 8.5096e-07, No Iterations 0
DILUPBiCGStab:  Solving for k, Initial residual = 8.18686e-07, Final residual = 8.18686e-07, No Iterations 0
ExecutionTime = 2.25 s  ClockTime = 2 s

Courant Number mean: 0.00635853 max: 0.0329691
Time = 1810.17

diagonal:  Solving for rho, Initial residual = 0, Final residual = 0, No Iterations 0
DILUPBiCGStab:  Solving for Ux, Initial residual = 6.95472e-09, Final residual = 6.95472e-09, No Iterations 0
DILUPBiCGStab:  Solving for Uy, Initial residual = 1.39e-08, Final residual = 1.39e-08, No Iterations 0
DILUPBiCGStab:  Solving for h, Initial residual = 9.97068e-07, Final residual = 9.97068e-07, No Iterations 0
DICPCG:  Solving for p_rgh, Initial residual = 1.27621e-08, Final residual = 8.61303e-09, No Iterations 1
diagonal:  Solving for rho, Initial residual = 0, Final residual = 0, No Iterations 0
time step continuity errors : sum local = 8.99049e-13, global = 7.55049e-13, cumulative = -1.78296e-07
DICPCG:  Solving for p_rgh, Initial residual = 8.97593e-09, Final residual = 8.97593e-09, No Iterations 0
diagonal:  Solving for rho, Initial residual = 0, Final residual = 0, No Iterations 0
time step continuity errors : sum local = 9.333e-13, global = 7.57357e-13, cumulative = -1.78295e-07
DILUPBiCGStab:  Solving for epsilon, Initial residual = 8.50951e-07, Final residual = 8.50951e-07, No Iterations 0
DILUPBiCGStab:  Solving for k, Initial residual = 8.18683e-07, Final residual = 8.18683e-07, No Iterations 0
ExecutionTime = 2.26 s  ClockTime = 2 s

Courant Number mean: 0.00635853 max: 0.0329691
Time = 1810.18

diagonal:  Solving for rho, Initial residual = 0, Final residual = 0, No Iterations 0
DILUPBiCGStab:  Solving for Ux, Initial residual = 6.94772e-09, Final residual = 6.94772e-09, No Iterations 0
DILUPBiCGStab:  Solving for Uy, Initial residual = 1.38984e-08, Final residual = 1.38984e-08, No Iterations 0
DILUPBiCGStab:  Solving for h, Initial residual = 9.97067e-07, Final residual = 9.97067e-07, No Iterations 0
DICPCG:  Solving for p_rgh, Initial residual = 1.28085e-08, Final residual = 8.2984e-09, No Iterations 1
diagonal:  Solving for rho, Initial residual = 0, Final residual = 0, No Iterations 0
time step continuity errors : sum local = 8.65174e-13, global = 7.51086e-13, cumulative = -1.78294e-07
DICPCG:  Solving for p_rgh, Initial residual = 9.10368e-09, Final residual = 9.10368e-09, No Iterations 0
diagonal:  Solving for rho, Initial residual = 0, Final residual = 0, No Iterations 0
time step continuity errors : sum local = 9.46912e-13, global = 7.53409e-13, cumulative = -1.78293e-07
DILUPBiCGStab:  Solving for epsilon, Initial residual = 8.50942e-07, Final residual = 8.50942e-07, No Iterations 0
DILUPBiCGStab:  Solving for k, Initial residual = 8.1868e-07, Final residual = 8.1868e-07, No Iterations 0
ExecutionTime = 2.26 s  ClockTime = 2 s

Courant Number mean: 0.00635853 max: 0.0329691
Time = 1810.19

diagonal:  Solving for rho, Initial residual = 0, Final residual = 0, No Iterations 0
DILUPBiCGStab:  Solving for Ux, Initial residual = 6.94292e-09, Final residual = 6.94292e-09, No Iterations 0
DILUPBiCGStab:  Solving for Uy, Initial residual = 1.38695e-08, Final residual = 1.38695e-08, No Iterations 0
DILUPBiCGStab:  Solving for h, Initial residual = 9.97067e-07, Final residual = 9.97067e-07, No Iterations 0
DICPCG:  Solving for p_rgh, Initial residual = 1.25109e-08, Final residual = 8.5317e-09, No Iterations 1
diagonal:  Solving for rho, Initial residual = 0, Final residual = 0, No Iterations 0
time step continuity errors : sum local = 8.87809e-13, global = 7.45186e-13, cumulative = -1.78293e-07
DICPCG:  Solving for p_rgh, Initial residual = 8.75817e-09, Final residual = 8.75817e-09, No Iterations 0
diagonal:  Solving for rho, Initial residual = 0, Final residual = 0, No Iterations 0
time step continuity errors : sum local = 9.15576e-13, global = 7.47506e-13, cumulative = -1.78292e-07
DILUPBiCGStab:  Solving for epsilon, Initial residual = 8.50934e-07, Final residual = 8.50934e-07, No Iterations 0
DILUPBiCGStab:  Solving for k, Initial residual = 8.18677e-07, Final residual = 8.18677e-07, No Iterations 0
ExecutionTime = 2.26 s  ClockTime = 2 s

Courant Number mean: 0.00635853 max: 0.0329691
Time = 1810.2

diagonal:  Solving for rho, Initial residual = 0, Final residual = 0, No Iterations 0
DILUPBiCGStab:  Solving for Ux, Initial residual = 6.93624e-09, Final residual = 6.93624e-09, No Iterations 0
DILUPBiCGStab:  Solving for Uy, Initial residual = 1.38677e-08, Final residual = 1.38677e-08, No Iterations 0
DILUPBiCGStab:  Solving for h, Initial residual = 9.97067e-07, Final residual = 9.97067e-07, No Iterations 0
DICPCG:  Solving for p_rgh, Initial residual = 1.24987e-08, Final residual = 8.21388e-09, No Iterations 1
diagonal:  Solving for rho, Initial residual = 0, Final residual = 0, No Iterations 0
time step continuity errors : sum local = 8.49394e-13, global = 7.40656e-13, cumulative = -1.78291e-07
DICPCG:  Solving for p_rgh, Initial residual = 9.03913e-09, Final residual = 9.03913e-09, No Iterations 0
diagonal:  Solving for rho, Initial residual = 0, Final residual = 0, No Iterations 0
time step continuity errors : sum local = 9.31776e-13, global = 7.4298e-13, cumulative = -1.7829e-07
DILUPBiCGStab:  Solving for epsilon, Initial residual = 8.50925e-07, Final residual = 8.50925e-07, No Iterations 0
DILUPBiCGStab:  Solving for k, Initial residual = 8.18674e-07, Final residual = 8.18674e-07, No Iterations 0
ExecutionTime = 2.26 s  ClockTime = 2 s

Courant Number mean: 0.00635853 max: 0.0329691
Time = 1810.21

diagonal:  Solving for rho, Initial residual = 0, Final residual = 0, No Iterations 0
DILUPBiCGStab:  Solving for Ux, Initial residual = 6.93124e-09, Final residual = 6.93124e-09, No Iterations 0
DILUPBiCGStab:  Solving for Uy, Initial residual = 1.38392e-08, Final residual = 1.38392e-08, No Iterations 0
DILUPBiCGStab:  Solving for h, Initial residual = 9.97067e-07, Final residual = 9.97067e-07, No Iterations 0
DICPCG:  Solving for p_rgh, Initial residual = 1.22868e-08, Final residual = 8.32954e-09, No Iterations 1
diagonal:  Solving for rho, Initial residual = 0, Final residual = 0, No Iterations 0
time step continuity errors : sum local = 8.65245e-13, global = 7.34648e-13, cumulative = -1.7829e-07
DICPCG:  Solving for p_rgh, Initial residual = 8.58586e-09, Final residual = 8.58586e-09, No Iterations 0
diagonal:  Solving for rho, Initial residual = 0, Final residual = 0, No Iterations 0
time step continuity errors : sum local = 8.98918e-13, global = 7.36974e-13, cumulative = -1.78289e-07
DILUPBiCGStab:  Solving for epsilon, Initial residual = 8.50917e-07, Final residual = 8.50917e-07, No Iterations 0
DILUPBiCGStab:  Solving for k, Initial residual = 8.18671e-07, Final residual = 8.18671e-07, No Iterations 0
ExecutionTime = 2.26 s  ClockTime = 2 s

Courant Number mean: 0.00635853 max: 0.0329691
Time = 1810.22

diagonal:  Solving for rho, Initial residual = 0, Final residual = 0, No Iterations 0
DILUPBiCGStab:  Solving for Ux, Initial residual = 6.925e-09, Final residual = 6.925e-09, No Iterations 0
DILUPBiCGStab:  Solving for Uy, Initial residual = 1.3837e-08, Final residual = 1.3837e-08, No Iterations 0
DILUPBiCGStab:  Solving for h, Initial residual = 9.97067e-07, Final residual = 9.97067e-07, No Iterations 0
DICPCG:  Solving for p_rgh, Initial residual = 1.23026e-08, Final residual = 8.06121e-09, No Iterations 1
diagonal:  Solving for rho, Initial residual = 0, Final residual = 0, No Iterations 0
time step continuity errors : sum local = 8.34876e-13, global = 7.28378e-13, cumulative = -1.78288e-07
DICPCG:  Solving for p_rgh, Initial residual = 8.81795e-09, Final residual = 8.81795e-09, No Iterations 0
diagonal:  Solving for rho, Initial residual = 0, Final residual = 0, No Iterations 0
time step continuity errors : sum local = 9.189e-13, global = 7.30712e-13, cumulative = -1.78287e-07
DILUPBiCGStab:  Solving for epsilon, Initial residual = 8.50908e-07, Final residual = 8.50908e-07, No Iterations 0
DILUPBiCGStab:  Solving for k, Initial residual = 8.18669e-07, Final residual = 8.18669e-07, No Iterations 0
ExecutionTime = 2.27 s  ClockTime = 2 s

Courant Number mean: 0.00635853 max: 0.0329691
Time = 1810.23

diagonal:  Solving for rho, Initial residual = 0, Final residual = 0, No Iterations 0
